
The following have been reloaded with a version change:
  1) python/3.8-anaconda3 => python/2.7.15

####START INFO####
Host information: Node

h34n13
GPU Information: Device_ID GPU_ID
0 GPU-848c9ac1-9174-fcca-069f-89b3e08e5083
1 GPU-dc75d15d-f7a8-c3f5-0614-2acbc9bc6d85
2 GPU-003fab64-7a41-3f17-b0d4-021161c809a5
3 GPU-fcc566a8-70b3-b708-40e4-3ae61290467e
####END   INFO####
/gpfs/alpine/scratch/brantran/gen150/accelwattch-artifact-appendix
WARNING ** source setup_environment must be run in a bash, zsh or sh shell; see README
GPGPU-Sim version 4.0.0 (build gpgpu-sim_git-commit-66ae8815dd1a9cd5fcc0e08332ebca323c356863-modified_600.0) configured with AccelWattch.

----------------------------------------------------------------------------
INFO - If you only care about PTX execution, ignore this message. GPGPU-Sim supports PTX execution in modern CUDA.
If you want to run PTXPLUS (sm_1x SASS) with a modern card configuration - set the envronment variable
$PTXAS_CUDA_INSTALL_PATH to point a CUDA version compabible with your card configurations (i.e. 8+ for PASCAL, 9+ for VOLTA etc..)
For example: "export $PTXAS_CUDA_INSTALL_PATH=/usr/local/cuda-9.1"

The following text describes why:
If you are using PTXPLUS, only sm_1x is supported and it requires that the app and simulator binaries are compiled in CUDA 4.2 or less.
The simulator requires it since CUDA headers desribe struct sizes in the exec which change from gen to gen.
The apps require 4.2 because new versions of CUDA tools have dropped parsing support for generating sm_1x
When running using modern config (i.e. volta) and PTXPLUS with CUDA 4.2, the $PTXAS_CUDA_INSTALL_PATH env variable is required to get proper register usage
(and hence occupancy) using a version of CUDA that knows the register usage on the real card.

----------------------------------------------------------------------------
setup_environment succeeded
/gpfs/alpine/scratch/brantran/gen150/accelwattch-artifact-appendix/accel-sim-framework/gpu-simulator
Starting profiling of BE_DP_FP_ADD_2000000000
Profiling concluded. Killing BE_DP_FP_ADD_2000000000 with pid: 1753932
Sleeping...
/gpfs/alpine/scratch/brantran/gen150/accelwattch-artifact-appendix/accel-sim-framework/gpu-simulator/../accelwattch_hw_profiler/profile_ubench_power.sh: line 72: 1753932 Killed                  CUDA_VISIBLE_DEVICES=$DEVID $BINDIR/$bm
Starting profiling of BE_SP_FP_ADD_2000000000
Profiling concluded. Killing BE_SP_FP_ADD_2000000000 with pid: 1753996
Sleeping...
/gpfs/alpine/scratch/brantran/gen150/accelwattch-artifact-appendix/accel-sim-framework/gpu-simulator/../accelwattch_hw_profiler/profile_ubench_power.sh: line 72: 1753996 Killed                  CUDA_VISIBLE_DEVICES=$DEVID $BINDIR/$bm
Starting profiling of BE_HP_FP_ADD_2000000000
Profiling concluded. Killing BE_HP_FP_ADD_2000000000 with pid: 1754059
Sleeping...
/gpfs/alpine/scratch/brantran/gen150/accelwattch-artifact-appendix/accel-sim-framework/gpu-simulator/../accelwattch_hw_profiler/profile_ubench_power.sh: line 72: 1754059 Killed                  CUDA_VISIBLE_DEVICES=$DEVID $BINDIR/$bm
Starting profiling of BE_SP_INT_ADD_2000000000
Power Microbenchmarks with iterations 2000000000
gpu execution time = 43054.160 ms
Profiling concluded. Killing BE_SP_INT_ADD_2000000000 with pid: 
Sleeping...
Starting profiling of BE_DP_FP_ADD_2000000000
Profiling concluded. Killing BE_DP_FP_ADD_2000000000 with pid: 1754156
Sleeping...
/gpfs/alpine/scratch/brantran/gen150/accelwattch-artifact-appendix/accel-sim-framework/gpu-simulator/../accelwattch_hw_profiler/profile_ubench_power.sh: line 72: 1754156 Killed                  CUDA_VISIBLE_DEVICES=$DEVID $BINDIR/$bm
Starting profiling of BE_SP_FP_ADD_2000000000
Profiling concluded. Killing BE_SP_FP_ADD_2000000000 with pid: 1754221
Sleeping...
/gpfs/alpine/scratch/brantran/gen150/accelwattch-artifact-appendix/accel-sim-framework/gpu-simulator/../accelwattch_hw_profiler/profile_ubench_power.sh: line 72: 1754221 Killed                  CUDA_VISIBLE_DEVICES=$DEVID $BINDIR/$bm
Starting profiling of BE_HP_FP_ADD_2000000000
Profiling concluded. Killing BE_HP_FP_ADD_2000000000 with pid: 1754290
Sleeping...
/gpfs/alpine/scratch/brantran/gen150/accelwattch-artifact-appendix/accel-sim-framework/gpu-simulator/../accelwattch_hw_profiler/profile_ubench_power.sh: line 72: 1754290 Killed                  CUDA_VISIBLE_DEVICES=$DEVID $BINDIR/$bm
Starting profiling of BE_SP_INT_ADD_2000000000
Power Microbenchmarks with iterations 2000000000
gpu execution time = 43046.965 ms
Profiling concluded. Killing BE_SP_INT_ADD_2000000000 with pid: 
Sleeping...
Starting profiling of BE_DP_FP_ADD_2000000000
Profiling concluded. Killing BE_DP_FP_ADD_2000000000 with pid: 1754417
Sleeping...
/gpfs/alpine/scratch/brantran/gen150/accelwattch-artifact-appendix/accel-sim-framework/gpu-simulator/../accelwattch_hw_profiler/profile_ubench_power.sh: line 72: 1754417 Killed                  CUDA_VISIBLE_DEVICES=$DEVID $BINDIR/$bm
Starting profiling of BE_SP_FP_ADD_2000000000
Profiling concluded. Killing BE_SP_FP_ADD_2000000000 with pid: 1754485
Sleeping...
/gpfs/alpine/scratch/brantran/gen150/accelwattch-artifact-appendix/accel-sim-framework/gpu-simulator/../accelwattch_hw_profiler/profile_ubench_power.sh: line 72: 1754485 Killed                  CUDA_VISIBLE_DEVICES=$DEVID $BINDIR/$bm
Starting profiling of BE_HP_FP_ADD_2000000000
Profiling concluded. Killing BE_HP_FP_ADD_2000000000 with pid: 1754550
Sleeping...
/gpfs/alpine/scratch/brantran/gen150/accelwattch-artifact-appendix/accel-sim-framework/gpu-simulator/../accelwattch_hw_profiler/profile_ubench_power.sh: line 72: 1754550 Killed                  CUDA_VISIBLE_DEVICES=$DEVID $BINDIR/$bm
Starting profiling of BE_SP_INT_ADD_2000000000
Power Microbenchmarks with iterations 2000000000
gpu execution time = 43066.895 ms
Profiling concluded. Killing BE_SP_INT_ADD_2000000000 with pid: 
Sleeping...
Starting profiling of BE_DP_FP_ADD_2000000000
Profiling concluded. Killing BE_DP_FP_ADD_2000000000 with pid: 1754678
Sleeping...
/gpfs/alpine/scratch/brantran/gen150/accelwattch-artifact-appendix/accel-sim-framework/gpu-simulator/../accelwattch_hw_profiler/profile_ubench_power.sh: line 72: 1754678 Killed                  CUDA_VISIBLE_DEVICES=$DEVID $BINDIR/$bm
Starting profiling of BE_SP_FP_ADD_2000000000
Profiling concluded. Killing BE_SP_FP_ADD_2000000000 with pid: 1754745
Sleeping...
/gpfs/alpine/scratch/brantran/gen150/accelwattch-artifact-appendix/accel-sim-framework/gpu-simulator/../accelwattch_hw_profiler/profile_ubench_power.sh: line 72: 1754745 Killed                  CUDA_VISIBLE_DEVICES=$DEVID $BINDIR/$bm
Starting profiling of BE_HP_FP_ADD_2000000000
Profiling concluded. Killing BE_HP_FP_ADD_2000000000 with pid: 1754775
Sleeping...
/gpfs/alpine/scratch/brantran/gen150/accelwattch-artifact-appendix/accel-sim-framework/gpu-simulator/../accelwattch_hw_profiler/profile_ubench_power.sh: line 72: 1754775 Killed                  CUDA_VISIBLE_DEVICES=$DEVID $BINDIR/$bm
Starting profiling of BE_SP_INT_ADD_2000000000
Power Microbenchmarks with iterations 2000000000
gpu execution time = 43057.672 ms
Profiling concluded. Killing BE_SP_INT_ADD_2000000000 with pid: 
Sleeping...
Starting profiling of BE_DP_FP_ADD_2000000000
Profiling concluded. Killing BE_DP_FP_ADD_2000000000 with pid: 1754939
Sleeping...
/gpfs/alpine/scratch/brantran/gen150/accelwattch-artifact-appendix/accel-sim-framework/gpu-simulator/../accelwattch_hw_profiler/profile_ubench_power.sh: line 72: 1754939 Killed                  CUDA_VISIBLE_DEVICES=$DEVID $BINDIR/$bm
Starting profiling of BE_SP_FP_ADD_2000000000
Profiling concluded. Killing BE_SP_FP_ADD_2000000000 with pid: 1755003
Sleeping...
/gpfs/alpine/scratch/brantran/gen150/accelwattch-artifact-appendix/accel-sim-framework/gpu-simulator/../accelwattch_hw_profiler/profile_ubench_power.sh: line 72: 1755003 Killed                  CUDA_VISIBLE_DEVICES=$DEVID $BINDIR/$bm
Starting profiling of BE_HP_FP_ADD_2000000000
Profiling concluded. Killing BE_HP_FP_ADD_2000000000 with pid: 1755067
Sleeping...
/gpfs/alpine/scratch/brantran/gen150/accelwattch-artifact-appendix/accel-sim-framework/gpu-simulator/../accelwattch_hw_profiler/profile_ubench_power.sh: line 72: 1755067 Killed                  CUDA_VISIBLE_DEVICES=$DEVID $BINDIR/$bm
Starting profiling of BE_SP_INT_ADD_2000000000
Power Microbenchmarks with iterations 2000000000
gpu execution time = 43045.750 ms
Profiling concluded. Killing BE_SP_INT_ADD_2000000000 with pid: 
Sleeping...
