/gpfs/alpine/scratch/brantran/gen150/accelwattch-artifact-appendix
WARNING ** source setup_environment must be run in a bash, zsh or sh shell; see README
GPGPU-Sim version 4.0.0 (build gpgpu-sim_git-commit-66ae8815dd1a9cd5fcc0e08332ebca323c356863-modified_600.0) configured with AccelWattch.

----------------------------------------------------------------------------
INFO - If you only care about PTX execution, ignore this message. GPGPU-Sim supports PTX execution in modern CUDA.
If you want to run PTXPLUS (sm_1x SASS) with a modern card configuration - set the envronment variable
$PTXAS_CUDA_INSTALL_PATH to point a CUDA version compabible with your card configurations (i.e. 8+ for PASCAL, 9+ for VOLTA etc..)
For example: "export $PTXAS_CUDA_INSTALL_PATH=/usr/local/cuda-9.1"

The following text describes why:
If you are using PTXPLUS, only sm_1x is supported and it requires that the app and simulator binaries are compiled in CUDA 4.2 or less.
The simulator requires it since CUDA headers desribe struct sizes in the exec which change from gen to gen.
The apps require 4.2 because new versions of CUDA tools have dropped parsing support for generating sm_1x
When running using modern config (i.e. volta) and PTXPLUS with CUDA 4.2, the $PTXAS_CUDA_INSTALL_PATH env variable is required to get proper register usage
(and hence occupancy) using a version of CUDA that knows the register usage on the real card.

----------------------------------------------------------------------------
setup_environment succeeded
/gpfs/alpine/scratch/brantran/gen150/accelwattch-artifact-appendix/accel-sim-framework/gpu-simulator
Starting profiling of pathfinder_k1 
Profiling concluded. Killing pathfinder_k1 with pid: 682078
Heating up the GPU to >65C and rerunning kernel...
/gpfs/alpine/scratch/brantran/gen150/accelwattch-artifact-appendix/accel-sim-framework/gpu-simulator/../accelwattch_hw_profiler/profile_validation_power.sh: line 143: 682078 Killed                  ${!bm_name} >> $SCRIPT_DIR/validation_profile_output/${bm}_output.txt
/gpfs/alpine/scratch/brantran/gen150/accelwattch-artifact-appendix/accel-sim-framework/gpu-simulator/../accelwattch_hw_profiler/profile_validation_power.sh: line 143: 682094 Killed                  $BINDIR/backprop_k1 65536
Profiling concluded. Killing pathfinder_k1 with pid: 682144
Sleeping...
/gpfs/alpine/scratch/brantran/gen150/accelwattch-artifact-appendix/accel-sim-framework/gpu-simulator/../accelwattch_hw_profiler/profile_validation_power.sh: line 143: 682144 Killed                  ${!bm_name} >> $SCRIPT_DIR/validation_profile_output/${bm}_output.txt
Starting profiling of quasirandomGenerator_k1 
Profiling concluded. Killing quasirandomGenerator_k1 with pid: 682159
Sleeping...
/gpfs/alpine/scratch/brantran/gen150/accelwattch-artifact-appendix/accel-sim-framework/gpu-simulator/../accelwattch_hw_profiler/profile_validation_power.sh: line 143: 682159 Killed                  ${!bm_name} >> $SCRIPT_DIR/validation_profile_output/${bm}_output.txt
Starting profiling of quasirandomGenerator_k2 
Profiling concluded. Killing quasirandomGenerator_k2 with pid: 682182
Heating up the GPU to >65C and rerunning kernel...
/gpfs/alpine/scratch/brantran/gen150/accelwattch-artifact-appendix/accel-sim-framework/gpu-simulator/../accelwattch_hw_profiler/profile_validation_power.sh: line 143: 682182 Killed                  ${!bm_name} >> $SCRIPT_DIR/validation_profile_output/${bm}_output.txt
CUDA error at quasirandomGenerator.cpp:69 code=46(cudaErrorDevicesUnavailable) "cudaMalloc((void **)&d_Output, QRNG_DIMENSIONS * N * sizeof(float))" 
/gpfs/alpine/scratch/brantran/gen150/accelwattch-artifact-appendix/accel-sim-framework/gpu-simulator/../accelwattch_hw_profiler/profile_validation_power.sh: line 143: 682198 Killed                  $BINDIR/backprop_k1 65536
Profiling concluded. Killing quasirandomGenerator_k2 with pid: 
kill: usage: kill [-s sigspec | -n signum | -sigspec] pid | jobspec ... or kill -l [sigspec]
Sleeping...
Starting profiling of pathfinder_k1 
Profiling concluded. Killing pathfinder_k1 with pid: 682272
Heating up the GPU to >65C and rerunning kernel...
/gpfs/alpine/scratch/brantran/gen150/accelwattch-artifact-appendix/accel-sim-framework/gpu-simulator/../accelwattch_hw_profiler/profile_validation_power.sh: line 143: 682272 Killed                  ${!bm_name} >> $SCRIPT_DIR/validation_profile_output/${bm}_output.txt
/gpfs/alpine/scratch/brantran/gen150/accelwattch-artifact-appendix/accel-sim-framework/gpu-simulator/../accelwattch_hw_profiler/profile_validation_power.sh: line 143: 682291 Killed                  $BINDIR/backprop_k1 65536
Profiling concluded. Killing pathfinder_k1 with pid: 682308
Sleeping...
/gpfs/alpine/scratch/brantran/gen150/accelwattch-artifact-appendix/accel-sim-framework/gpu-simulator/../accelwattch_hw_profiler/profile_validation_power.sh: line 143: 682308 Killed                  ${!bm_name} >> $SCRIPT_DIR/validation_profile_output/${bm}_output.txt
Starting profiling of quasirandomGenerator_k1 
Profiling concluded. Killing quasirandomGenerator_k1 with pid: 682324
Sleeping...
/gpfs/alpine/scratch/brantran/gen150/accelwattch-artifact-appendix/accel-sim-framework/gpu-simulator/../accelwattch_hw_profiler/profile_validation_power.sh: line 143: 682324 Killed                  ${!bm_name} >> $SCRIPT_DIR/validation_profile_output/${bm}_output.txt
Starting profiling of quasirandomGenerator_k2 
Profiling concluded. Killing quasirandomGenerator_k2 with pid: 682347
Heating up the GPU to >65C and rerunning kernel...
/gpfs/alpine/scratch/brantran/gen150/accelwattch-artifact-appendix/accel-sim-framework/gpu-simulator/../accelwattch_hw_profiler/profile_validation_power.sh: line 143: 682347 Killed                  ${!bm_name} >> $SCRIPT_DIR/validation_profile_output/${bm}_output.txt
CUDA error at quasirandomGenerator.cpp:69 code=46(cudaErrorDevicesUnavailable) "cudaMalloc((void **)&d_Output, QRNG_DIMENSIONS * N * sizeof(float))" 
/gpfs/alpine/scratch/brantran/gen150/accelwattch-artifact-appendix/accel-sim-framework/gpu-simulator/../accelwattch_hw_profiler/profile_validation_power.sh: line 143: 682401 Killed                  $BINDIR/backprop_k1 65536
Profiling concluded. Killing quasirandomGenerator_k2 with pid: 
kill: usage: kill [-s sigspec | -n signum | -sigspec] pid | jobspec ... or kill -l [sigspec]
Sleeping...
Starting profiling of pathfinder_k1 
Profiling concluded. Killing pathfinder_k1 with pid: 682434
Heating up the GPU to >65C and rerunning kernel...
/gpfs/alpine/scratch/brantran/gen150/accelwattch-artifact-appendix/accel-sim-framework/gpu-simulator/../accelwattch_hw_profiler/profile_validation_power.sh: line 143: 682434 Killed                  ${!bm_name} >> $SCRIPT_DIR/validation_profile_output/${bm}_output.txt
/gpfs/alpine/scratch/brantran/gen150/accelwattch-artifact-appendix/accel-sim-framework/gpu-simulator/../accelwattch_hw_profiler/profile_validation_power.sh: line 143: 682450 Killed                  $BINDIR/backprop_k1 65536
Profiling concluded. Killing pathfinder_k1 with pid: 682467
Sleeping...
/gpfs/alpine/scratch/brantran/gen150/accelwattch-artifact-appendix/accel-sim-framework/gpu-simulator/../accelwattch_hw_profiler/profile_validation_power.sh: line 143: 682467 Killed                  ${!bm_name} >> $SCRIPT_DIR/validation_profile_output/${bm}_output.txt
Starting profiling of quasirandomGenerator_k1 
Profiling concluded. Killing quasirandomGenerator_k1 with pid: 682517
Sleeping...
/gpfs/alpine/scratch/brantran/gen150/accelwattch-artifact-appendix/accel-sim-framework/gpu-simulator/../accelwattch_hw_profiler/profile_validation_power.sh: line 143: 682517 Killed                  ${!bm_name} >> $SCRIPT_DIR/validation_profile_output/${bm}_output.txt
Starting profiling of quasirandomGenerator_k2 
Profiling concluded. Killing quasirandomGenerator_k2 with pid: 682539
Heating up the GPU to >65C and rerunning kernel...
/gpfs/alpine/scratch/brantran/gen150/accelwattch-artifact-appendix/accel-sim-framework/gpu-simulator/../accelwattch_hw_profiler/profile_validation_power.sh: line 143: 682539 Killed                  ${!bm_name} >> $SCRIPT_DIR/validation_profile_output/${bm}_output.txt
CUDA error at quasirandomGenerator.cpp:69 code=46(cudaErrorDevicesUnavailable) "cudaMalloc((void **)&d_Output, QRNG_DIMENSIONS * N * sizeof(float))" 
/gpfs/alpine/scratch/brantran/gen150/accelwattch-artifact-appendix/accel-sim-framework/gpu-simulator/../accelwattch_hw_profiler/profile_validation_power.sh: line 143: 682558 Killed                  $BINDIR/backprop_k1 65536
Profiling concluded. Killing quasirandomGenerator_k2 with pid: 
kill: usage: kill [-s sigspec | -n signum | -sigspec] pid | jobspec ... or kill -l [sigspec]
Sleeping...
Starting profiling of pathfinder_k1 
Profiling concluded. Killing pathfinder_k1 with pid: 682590
Heating up the GPU to >65C and rerunning kernel...
/gpfs/alpine/scratch/brantran/gen150/accelwattch-artifact-appendix/accel-sim-framework/gpu-simulator/../accelwattch_hw_profiler/profile_validation_power.sh: line 143: 682590 Killed                  ${!bm_name} >> $SCRIPT_DIR/validation_profile_output/${bm}_output.txt
/gpfs/alpine/scratch/brantran/gen150/accelwattch-artifact-appendix/accel-sim-framework/gpu-simulator/../accelwattch_hw_profiler/profile_validation_power.sh: line 143: 682637 Killed                  $BINDIR/backprop_k1 65536
Profiling concluded. Killing pathfinder_k1 with pid: 682654
Sleeping...
/gpfs/alpine/scratch/brantran/gen150/accelwattch-artifact-appendix/accel-sim-framework/gpu-simulator/../accelwattch_hw_profiler/profile_validation_power.sh: line 143: 682654 Killed                  ${!bm_name} >> $SCRIPT_DIR/validation_profile_output/${bm}_output.txt
Starting profiling of quasirandomGenerator_k1 
Profiling concluded. Killing quasirandomGenerator_k1 with pid: 682669
Sleeping...
/gpfs/alpine/scratch/brantran/gen150/accelwattch-artifact-appendix/accel-sim-framework/gpu-simulator/../accelwattch_hw_profiler/profile_validation_power.sh: line 143: 682669 Killed                  ${!bm_name} >> $SCRIPT_DIR/validation_profile_output/${bm}_output.txt
Starting profiling of quasirandomGenerator_k2 
Profiling concluded. Killing quasirandomGenerator_k2 with pid: 682692
Heating up the GPU to >65C and rerunning kernel...
/gpfs/alpine/scratch/brantran/gen150/accelwattch-artifact-appendix/accel-sim-framework/gpu-simulator/../accelwattch_hw_profiler/profile_validation_power.sh: line 143: 682692 Killed                  ${!bm_name} >> $SCRIPT_DIR/validation_profile_output/${bm}_output.txt
CUDA error at quasirandomGenerator.cpp:69 code=46(cudaErrorDevicesUnavailable) "cudaMalloc((void **)&d_Output, QRNG_DIMENSIONS * N * sizeof(float))" 
/gpfs/alpine/scratch/brantran/gen150/accelwattch-artifact-appendix/accel-sim-framework/gpu-simulator/../accelwattch_hw_profiler/profile_validation_power.sh: line 143: 682708 Killed                  $BINDIR/backprop_k1 65536
Profiling concluded. Killing quasirandomGenerator_k2 with pid: 
kill: usage: kill [-s sigspec | -n signum | -sigspec] pid | jobspec ... or kill -l [sigspec]
Sleeping...
Starting profiling of pathfinder_k1 
Profiling concluded. Killing pathfinder_k1 with pid: 682776
Heating up the GPU to >65C and rerunning kernel...
/gpfs/alpine/scratch/brantran/gen150/accelwattch-artifact-appendix/accel-sim-framework/gpu-simulator/../accelwattch_hw_profiler/profile_validation_power.sh: line 143: 682776 Killed                  ${!bm_name} >> $SCRIPT_DIR/validation_profile_output/${bm}_output.txt
/gpfs/alpine/scratch/brantran/gen150/accelwattch-artifact-appendix/accel-sim-framework/gpu-simulator/../accelwattch_hw_profiler/profile_validation_power.sh: line 143: 682792 Killed                  $BINDIR/backprop_k1 65536
Profiling concluded. Killing pathfinder_k1 with pid: 682810
Sleeping...
/gpfs/alpine/scratch/brantran/gen150/accelwattch-artifact-appendix/accel-sim-framework/gpu-simulator/../accelwattch_hw_profiler/profile_validation_power.sh: line 143: 682810 Killed                  ${!bm_name} >> $SCRIPT_DIR/validation_profile_output/${bm}_output.txt
Starting profiling of quasirandomGenerator_k1 
Profiling concluded. Killing quasirandomGenerator_k1 with pid: 682825
Sleeping...
/gpfs/alpine/scratch/brantran/gen150/accelwattch-artifact-appendix/accel-sim-framework/gpu-simulator/../accelwattch_hw_profiler/profile_validation_power.sh: line 143: 682825 Killed                  ${!bm_name} >> $SCRIPT_DIR/validation_profile_output/${bm}_output.txt
Starting profiling of quasirandomGenerator_k2 
Profiling concluded. Killing quasirandomGenerator_k2 with pid: 682882
Heating up the GPU to >65C and rerunning kernel...
/gpfs/alpine/scratch/brantran/gen150/accelwattch-artifact-appendix/accel-sim-framework/gpu-simulator/../accelwattch_hw_profiler/profile_validation_power.sh: line 143: 682882 Killed                  ${!bm_name} >> $SCRIPT_DIR/validation_profile_output/${bm}_output.txt
CUDA error at quasirandomGenerator.cpp:69 code=46(cudaErrorDevicesUnavailable) "cudaMalloc((void **)&d_Output, QRNG_DIMENSIONS * N * sizeof(float))" 
/gpfs/alpine/scratch/brantran/gen150/accelwattch-artifact-appendix/accel-sim-framework/gpu-simulator/../accelwattch_hw_profiler/profile_validation_power.sh: line 143: 682898 Killed                  $BINDIR/backprop_k1 65536
Profiling concluded. Killing quasirandomGenerator_k2 with pid: 
kill: usage: kill [-s sigspec | -n signum | -sigspec] pid | jobspec ... or kill -l [sigspec]
Sleeping...
