/gpfs/alpine/scratch/brantran/gen150/accelwattch-artifact-appendix
WARNING ** source setup_environment must be run in a bash, zsh or sh shell; see README
GPGPU-Sim version 4.0.0 (build gpgpu-sim_git-commit-66ae8815dd1a9cd5fcc0e08332ebca323c356863-modified_600.0) configured with AccelWattch.

----------------------------------------------------------------------------
INFO - If you only care about PTX execution, ignore this message. GPGPU-Sim supports PTX execution in modern CUDA.
If you want to run PTXPLUS (sm_1x SASS) with a modern card configuration - set the envronment variable
$PTXAS_CUDA_INSTALL_PATH to point a CUDA version compabible with your card configurations (i.e. 8+ for PASCAL, 9+ for VOLTA etc..)
For example: "export $PTXAS_CUDA_INSTALL_PATH=/usr/local/cuda-9.1"

The following text describes why:
If you are using PTXPLUS, only sm_1x is supported and it requires that the app and simulator binaries are compiled in CUDA 4.2 or less.
The simulator requires it since CUDA headers desribe struct sizes in the exec which change from gen to gen.
The apps require 4.2 because new versions of CUDA tools have dropped parsing support for generating sm_1x
When running using modern config (i.e. volta) and PTXPLUS with CUDA 4.2, the $PTXAS_CUDA_INSTALL_PATH env variable is required to get proper register usage
(and hence occupancy) using a version of CUDA that knows the register usage on the real card.

----------------------------------------------------------------------------
setup_environment succeeded
/gpfs/alpine/scratch/brantran/gen150/accelwattch-artifact-appendix/accel-sim-framework/gpu-simulator
Starting profiling of backprop_k1 
Profiling concluded. Killing backprop_k1 with pid: 846842
Heating up the GPU to >65C and rerunning kernel...
/gpfs/alpine/scratch/brantran/gen150/accelwattch-artifact-appendix/accel-sim-framework/gpu-simulator/../accelwattch_hw_profiler/profile_validation_power.sh: line 143: 846842 Killed                  ${!bm_name} >> $SCRIPT_DIR/validation_profile_output/${bm}_output.txt
/gpfs/alpine/scratch/brantran/gen150/accelwattch-artifact-appendix/accel-sim-framework/gpu-simulator/../accelwattch_hw_profiler/profile_validation_power.sh: line 143: 846858 Killed                  $BINDIR/backprop_k1 65536
Profiling concluded. Killing backprop_k1 with pid: 846875
Sleeping...
/gpfs/alpine/scratch/brantran/gen150/accelwattch-artifact-appendix/accel-sim-framework/gpu-simulator/../accelwattch_hw_profiler/profile_validation_power.sh: line 143: 846875 Killed                  ${!bm_name} >> $SCRIPT_DIR/validation_profile_output/${bm}_output.txt
Starting profiling of backprop_k2 
Profiling concluded. Killing backprop_k2 with pid: 846899
Heating up the GPU to >65C and rerunning kernel...
/gpfs/alpine/scratch/brantran/gen150/accelwattch-artifact-appendix/accel-sim-framework/gpu-simulator/../accelwattch_hw_profiler/profile_validation_power.sh: line 143: 846899 Killed                  ${!bm_name} >> $SCRIPT_DIR/validation_profile_output/${bm}_output.txt
/gpfs/alpine/scratch/brantran/gen150/accelwattch-artifact-appendix/accel-sim-framework/gpu-simulator/../accelwattch_hw_profiler/profile_validation_power.sh: line 143: 846950 Killed                  $BINDIR/backprop_k1 65536
Profiling concluded. Killing backprop_k2 with pid: 846969
Sleeping...
/gpfs/alpine/scratch/brantran/gen150/accelwattch-artifact-appendix/accel-sim-framework/gpu-simulator/../accelwattch_hw_profiler/profile_validation_power.sh: line 143: 846969 Killed                  ${!bm_name} >> $SCRIPT_DIR/validation_profile_output/${bm}_output.txt
Starting profiling of binomialOptions_k1 
Profiling concluded. Killing binomialOptions_k1 with pid: 846994
Sleeping...
/gpfs/alpine/scratch/brantran/gen150/accelwattch-artifact-appendix/accel-sim-framework/gpu-simulator/../accelwattch_hw_profiler/profile_validation_power.sh: line 143: 846994 Killed                  ${!bm_name} >> $SCRIPT_DIR/validation_profile_output/${bm}_output.txt
Starting profiling of backprop_k1 
Profiling concluded. Killing backprop_k1 with pid: 847016
Heating up the GPU to >65C and rerunning kernel...
/gpfs/alpine/scratch/brantran/gen150/accelwattch-artifact-appendix/accel-sim-framework/gpu-simulator/../accelwattch_hw_profiler/profile_validation_power.sh: line 143: 847016 Killed                  ${!bm_name} >> $SCRIPT_DIR/validation_profile_output/${bm}_output.txt
/gpfs/alpine/scratch/brantran/gen150/accelwattch-artifact-appendix/accel-sim-framework/gpu-simulator/../accelwattch_hw_profiler/profile_validation_power.sh: line 143: 847032 Killed                  $BINDIR/backprop_k1 65536
Profiling concluded. Killing backprop_k1 with pid: 847049
Sleeping...
/gpfs/alpine/scratch/brantran/gen150/accelwattch-artifact-appendix/accel-sim-framework/gpu-simulator/../accelwattch_hw_profiler/profile_validation_power.sh: line 143: 847049 Killed                  ${!bm_name} >> $SCRIPT_DIR/validation_profile_output/${bm}_output.txt
Starting profiling of backprop_k2 
Profiling concluded. Killing backprop_k2 with pid: 847108
Heating up the GPU to >65C and rerunning kernel...
/gpfs/alpine/scratch/brantran/gen150/accelwattch-artifact-appendix/accel-sim-framework/gpu-simulator/../accelwattch_hw_profiler/profile_validation_power.sh: line 143: 847108 Killed                  ${!bm_name} >> $SCRIPT_DIR/validation_profile_output/${bm}_output.txt
/gpfs/alpine/scratch/brantran/gen150/accelwattch-artifact-appendix/accel-sim-framework/gpu-simulator/../accelwattch_hw_profiler/profile_validation_power.sh: line 143: 847125 Killed                  $BINDIR/backprop_k1 65536
Profiling concluded. Killing backprop_k2 with pid: 847142
Sleeping...
/gpfs/alpine/scratch/brantran/gen150/accelwattch-artifact-appendix/accel-sim-framework/gpu-simulator/../accelwattch_hw_profiler/profile_validation_power.sh: line 143: 847142 Killed                  ${!bm_name} >> $SCRIPT_DIR/validation_profile_output/${bm}_output.txt
Starting profiling of binomialOptions_k1 
Profiling concluded. Killing binomialOptions_k1 with pid: 847201
Sleeping...
/gpfs/alpine/scratch/brantran/gen150/accelwattch-artifact-appendix/accel-sim-framework/gpu-simulator/../accelwattch_hw_profiler/profile_validation_power.sh: line 143: 847201 Killed                  ${!bm_name} >> $SCRIPT_DIR/validation_profile_output/${bm}_output.txt
Starting profiling of backprop_k1 
Profiling concluded. Killing backprop_k1 with pid: 847224
Heating up the GPU to >65C and rerunning kernel...
/gpfs/alpine/scratch/brantran/gen150/accelwattch-artifact-appendix/accel-sim-framework/gpu-simulator/../accelwattch_hw_profiler/profile_validation_power.sh: line 143: 847224 Killed                  ${!bm_name} >> $SCRIPT_DIR/validation_profile_output/${bm}_output.txt
/gpfs/alpine/scratch/brantran/gen150/accelwattch-artifact-appendix/accel-sim-framework/gpu-simulator/../accelwattch_hw_profiler/profile_validation_power.sh: line 143: 847240 Killed                  $BINDIR/backprop_k1 65536
Profiling concluded. Killing backprop_k1 with pid: 847257
Sleeping...
/gpfs/alpine/scratch/brantran/gen150/accelwattch-artifact-appendix/accel-sim-framework/gpu-simulator/../accelwattch_hw_profiler/profile_validation_power.sh: line 143: 847257 Killed                  ${!bm_name} >> $SCRIPT_DIR/validation_profile_output/${bm}_output.txt
Starting profiling of backprop_k2 
Profiling concluded. Killing backprop_k2 with pid: 847282
/gpfs/alpine/scratch/brantran/gen150/accelwattch-artifact-appendix/accel-sim-framework/gpu-simulator/../accelwattch_hw_profiler/profile_validation_power.sh: line 143: 847282 Killed                  ${!bm_name} >> $SCRIPT_DIR/validation_profile_output/${bm}_output.txt
Heating up the GPU to >65C and rerunning kernel...
/gpfs/alpine/scratch/brantran/gen150/accelwattch-artifact-appendix/accel-sim-framework/gpu-simulator/../accelwattch_hw_profiler/profile_validation_power.sh: line 143: 847302 Killed                  $BINDIR/backprop_k1 65536
Profiling concluded. Killing backprop_k2 with pid: 847351
Sleeping...
/gpfs/alpine/scratch/brantran/gen150/accelwattch-artifact-appendix/accel-sim-framework/gpu-simulator/../accelwattch_hw_profiler/profile_validation_power.sh: line 143: 847351 Killed                  ${!bm_name} >> $SCRIPT_DIR/validation_profile_output/${bm}_output.txt
Starting profiling of binomialOptions_k1 
Profiling concluded. Killing binomialOptions_k1 with pid: 847376
Sleeping...
/gpfs/alpine/scratch/brantran/gen150/accelwattch-artifact-appendix/accel-sim-framework/gpu-simulator/../accelwattch_hw_profiler/profile_validation_power.sh: line 143: 847376 Killed                  ${!bm_name} >> $SCRIPT_DIR/validation_profile_output/${bm}_output.txt
Starting profiling of backprop_k1 
Profiling concluded. Killing backprop_k1 with pid: 847398
Heating up the GPU to >65C and rerunning kernel...
/gpfs/alpine/scratch/brantran/gen150/accelwattch-artifact-appendix/accel-sim-framework/gpu-simulator/../accelwattch_hw_profiler/profile_validation_power.sh: line 143: 847398 Killed                  ${!bm_name} >> $SCRIPT_DIR/validation_profile_output/${bm}_output.txt
/gpfs/alpine/scratch/brantran/gen150/accelwattch-artifact-appendix/accel-sim-framework/gpu-simulator/../accelwattch_hw_profiler/profile_validation_power.sh: line 143: 847414 Killed                  $BINDIR/backprop_k1 65536
Profiling concluded. Killing backprop_k1 with pid: 847433
Sleeping...
/gpfs/alpine/scratch/brantran/gen150/accelwattch-artifact-appendix/accel-sim-framework/gpu-simulator/../accelwattch_hw_profiler/profile_validation_power.sh: line 143: 847433 Killed                  ${!bm_name} >> $SCRIPT_DIR/validation_profile_output/${bm}_output.txt
Starting profiling of backprop_k2 
Profiling concluded. Killing backprop_k2 with pid: 847491
Heating up the GPU to >65C and rerunning kernel...
/gpfs/alpine/scratch/brantran/gen150/accelwattch-artifact-appendix/accel-sim-framework/gpu-simulator/../accelwattch_hw_profiler/profile_validation_power.sh: line 143: 847491 Killed                  ${!bm_name} >> $SCRIPT_DIR/validation_profile_output/${bm}_output.txt
/gpfs/alpine/scratch/brantran/gen150/accelwattch-artifact-appendix/accel-sim-framework/gpu-simulator/../accelwattch_hw_profiler/profile_validation_power.sh: line 143: 847508 Killed                  $BINDIR/backprop_k1 65536
Profiling concluded. Killing backprop_k2 with pid: 847525
Sleeping...
/gpfs/alpine/scratch/brantran/gen150/accelwattch-artifact-appendix/accel-sim-framework/gpu-simulator/../accelwattch_hw_profiler/profile_validation_power.sh: line 143: 847525 Killed                  ${!bm_name} >> $SCRIPT_DIR/validation_profile_output/${bm}_output.txt
Starting profiling of binomialOptions_k1 
Profiling concluded. Killing binomialOptions_k1 with pid: 847550
Sleeping...
/gpfs/alpine/scratch/brantran/gen150/accelwattch-artifact-appendix/accel-sim-framework/gpu-simulator/../accelwattch_hw_profiler/profile_validation_power.sh: line 143: 847550 Killed                  ${!bm_name} >> $SCRIPT_DIR/validation_profile_output/${bm}_output.txt
Starting profiling of backprop_k1 
Profiling concluded. Killing backprop_k1 with pid: 847607
Heating up the GPU to >65C and rerunning kernel...
/gpfs/alpine/scratch/brantran/gen150/accelwattch-artifact-appendix/accel-sim-framework/gpu-simulator/../accelwattch_hw_profiler/profile_validation_power.sh: line 143: 847607 Killed                  ${!bm_name} >> $SCRIPT_DIR/validation_profile_output/${bm}_output.txt
/gpfs/alpine/scratch/brantran/gen150/accelwattch-artifact-appendix/accel-sim-framework/gpu-simulator/../accelwattch_hw_profiler/profile_validation_power.sh: line 143: 847623 Killed                  $BINDIR/backprop_k1 65536
Profiling concluded. Killing backprop_k1 with pid: 847640
Sleeping...
/gpfs/alpine/scratch/brantran/gen150/accelwattch-artifact-appendix/accel-sim-framework/gpu-simulator/../accelwattch_hw_profiler/profile_validation_power.sh: line 143: 847640 Killed                  ${!bm_name} >> $SCRIPT_DIR/validation_profile_output/${bm}_output.txt
Starting profiling of backprop_k2 
Profiling concluded. Killing backprop_k2 with pid: 847665
Heating up the GPU to >65C and rerunning kernel...
/gpfs/alpine/scratch/brantran/gen150/accelwattch-artifact-appendix/accel-sim-framework/gpu-simulator/../accelwattch_hw_profiler/profile_validation_power.sh: line 143: 847665 Killed                  ${!bm_name} >> $SCRIPT_DIR/validation_profile_output/${bm}_output.txt
/gpfs/alpine/scratch/brantran/gen150/accelwattch-artifact-appendix/accel-sim-framework/gpu-simulator/../accelwattch_hw_profiler/profile_validation_power.sh: line 143: 847681 Killed                  $BINDIR/backprop_k1 65536
Profiling concluded. Killing backprop_k2 with pid: 847735
Sleeping...
/gpfs/alpine/scratch/brantran/gen150/accelwattch-artifact-appendix/accel-sim-framework/gpu-simulator/../accelwattch_hw_profiler/profile_validation_power.sh: line 143: 847735 Killed                  ${!bm_name} >> $SCRIPT_DIR/validation_profile_output/${bm}_output.txt
Starting profiling of binomialOptions_k1 
Profiling concluded. Killing binomialOptions_k1 with pid: 847759
Sleeping...
/gpfs/alpine/scratch/brantran/gen150/accelwattch-artifact-appendix/accel-sim-framework/gpu-simulator/../accelwattch_hw_profiler/profile_validation_power.sh: line 143: 847759 Killed                  ${!bm_name} >> $SCRIPT_DIR/validation_profile_output/${bm}_output.txt
