####START INFO####
Host information: Node

a05n14
GPU Information: Device_ID GPU_ID
0 GPU-848c9ac1-9174-fcca-069f-89b3e08e5083
1 GPU-dc75d15d-f7a8-c3f5-0614-2acbc9bc6d85
2 GPU-003fab64-7a41-3f17-b0d4-021161c809a5
3 GPU-fcc566a8-70b3-b708-40e4-3ae61290467e
####END   INFO####

The following have been reloaded with a version change:
  1) python/3.8-anaconda3 => python/2.7.15

/gpfs/alpine/scratch/brantran/gen150/accelwattch-artifact-appendix
WARNING ** source setup_environment must be run in a bash, zsh or sh shell; see README
GPGPU-Sim version 4.0.0 (build gpgpu-sim_git-commit-66ae8815dd1a9cd5fcc0e08332ebca323c356863-modified_600.0) configured with AccelWattch.

----------------------------------------------------------------------------
INFO - If you only care about PTX execution, ignore this message. GPGPU-Sim supports PTX execution in modern CUDA.
If you want to run PTXPLUS (sm_1x SASS) with a modern card configuration - set the envronment variable
$PTXAS_CUDA_INSTALL_PATH to point a CUDA version compabible with your card configurations (i.e. 8+ for PASCAL, 9+ for VOLTA etc..)
For example: "export $PTXAS_CUDA_INSTALL_PATH=/usr/local/cuda-9.1"

The following text describes why:
If you are using PTXPLUS, only sm_1x is supported and it requires that the app and simulator binaries are compiled in CUDA 4.2 or less.
The simulator requires it since CUDA headers desribe struct sizes in the exec which change from gen to gen.
The apps require 4.2 because new versions of CUDA tools have dropped parsing support for generating sm_1x
When running using modern config (i.e. volta) and PTXPLUS with CUDA 4.2, the $PTXAS_CUDA_INSTALL_PATH env variable is required to get proper register usage
(and hence occupancy) using a version of CUDA that knows the register usage on the real card.

----------------------------------------------------------------------------
setup_environment succeeded
/gpfs/alpine/scratch/brantran/gen150/accelwattch-artifact-appendix/accel-sim-framework/gpu-simulator
RUNNING POWER/TEMP DUMP WITH ONLY SLEEPS
Starting execution of kmeans_k1 
Temperature is currently 31 C
Starting profiling of kmeans_k1 
Profiling concluded. Killing kmeans_k1 with pid: 350328
Temperature is currently 42 C
Sleeping...
/gpfs/alpine/scratch/brantran/gen150/accelwattch-artifact-appendix/accel-sim-framework/gpu-simulator/../accelwattch_hw_profiler/profile_temp_power.sh: line 131: 350328 Killed                  ${!bm_name} > /dev/null
Starting execution of mergeSort_k1 
Temperature is currently 31 C
Starting profiling of mergeSort_k1 
Profiling concluded. Killing mergeSort_k1 with pid: 350394
Temperature is currently 48 C
Sleeping...
/gpfs/alpine/scratch/brantran/gen150/accelwattch-artifact-appendix/accel-sim-framework/gpu-simulator/../accelwattch_hw_profiler/profile_temp_power.sh: line 131: 350394 Killed                  ${!bm_name} > /dev/null
Starting execution of mergeSort_k2 
Temperature is currently 32 C
Starting profiling of mergeSort_k2 
Profiling concluded. Killing mergeSort_k2 with pid: 350418
Temperature is currently 49 C
Sleeping...
/gpfs/alpine/scratch/brantran/gen150/accelwattch-artifact-appendix/accel-sim-framework/gpu-simulator/../accelwattch_hw_profiler/profile_temp_power.sh: line 131: 350418 Killed                  ${!bm_name} > /dev/null
Starting execution of kmeans_k1 
Temperature is currently 32 C
Starting profiling of kmeans_k1 
Profiling concluded. Killing kmeans_k1 with pid: 350476
Temperature is currently 42 C
Sleeping...
/gpfs/alpine/scratch/brantran/gen150/accelwattch-artifact-appendix/accel-sim-framework/gpu-simulator/../accelwattch_hw_profiler/profile_temp_power.sh: line 131: 350476 Killed                  ${!bm_name} > /dev/null
Starting execution of mergeSort_k1 
Temperature is currently 31 C
Starting profiling of mergeSort_k1 
Profiling concluded. Killing mergeSort_k1 with pid: 350531
Temperature is currently 47 C
Sleeping...
/gpfs/alpine/scratch/brantran/gen150/accelwattch-artifact-appendix/accel-sim-framework/gpu-simulator/../accelwattch_hw_profiler/profile_temp_power.sh: line 131: 350531 Killed                  ${!bm_name} > /dev/null
Starting execution of mergeSort_k2 
Temperature is currently 31 C
Starting profiling of mergeSort_k2 
Profiling concluded. Killing mergeSort_k2 with pid: 350552
Temperature is currently 50 C
Sleeping...
/gpfs/alpine/scratch/brantran/gen150/accelwattch-artifact-appendix/accel-sim-framework/gpu-simulator/../accelwattch_hw_profiler/profile_temp_power.sh: line 131: 350552 Killed                  ${!bm_name} > /dev/null
Starting execution of kmeans_k1 
Temperature is currently 32 C
Starting profiling of kmeans_k1 
Profiling concluded. Killing kmeans_k1 with pid: 350606
Temperature is currently 42 C
Sleeping...
/gpfs/alpine/scratch/brantran/gen150/accelwattch-artifact-appendix/accel-sim-framework/gpu-simulator/../accelwattch_hw_profiler/profile_temp_power.sh: line 131: 350606 Killed                  ${!bm_name} > /dev/null
Starting execution of mergeSort_k1 
Temperature is currently 31 C
Starting profiling of mergeSort_k1 
Profiling concluded. Killing mergeSort_k1 with pid: 350663
Temperature is currently 48 C
Sleeping...
/gpfs/alpine/scratch/brantran/gen150/accelwattch-artifact-appendix/accel-sim-framework/gpu-simulator/../accelwattch_hw_profiler/profile_temp_power.sh: line 131: 350663 Killed                  ${!bm_name} > /dev/null
Starting execution of mergeSort_k2 
Temperature is currently 31 C
Starting profiling of mergeSort_k2 
Profiling concluded. Killing mergeSort_k2 with pid: 350685
Temperature is currently 50 C
Sleeping...
/gpfs/alpine/scratch/brantran/gen150/accelwattch-artifact-appendix/accel-sim-framework/gpu-simulator/../accelwattch_hw_profiler/profile_temp_power.sh: line 131: 350685 Killed                  ${!bm_name} > /dev/null
Starting execution of kmeans_k1 
Temperature is currently 32 C
Starting profiling of kmeans_k1 
Profiling concluded. Killing kmeans_k1 with pid: 350741
Temperature is currently 43 C
Sleeping...
/gpfs/alpine/scratch/brantran/gen150/accelwattch-artifact-appendix/accel-sim-framework/gpu-simulator/../accelwattch_hw_profiler/profile_temp_power.sh: line 131: 350741 Killed                  ${!bm_name} > /dev/null
Starting execution of mergeSort_k1 
Temperature is currently 31 C
Starting profiling of mergeSort_k1 
Profiling concluded. Killing mergeSort_k1 with pid: 350797
Temperature is currently 47 C
Sleeping...
/gpfs/alpine/scratch/brantran/gen150/accelwattch-artifact-appendix/accel-sim-framework/gpu-simulator/../accelwattch_hw_profiler/profile_temp_power.sh: line 131: 350797 Killed                  ${!bm_name} > /dev/null
Starting execution of mergeSort_k2 
Temperature is currently 32 C
Starting profiling of mergeSort_k2 
Profiling concluded. Killing mergeSort_k2 with pid: 350818
Temperature is currently 50 C
Sleeping...
/gpfs/alpine/scratch/brantran/gen150/accelwattch-artifact-appendix/accel-sim-framework/gpu-simulator/../accelwattch_hw_profiler/profile_temp_power.sh: line 131: 350818 Killed                  ${!bm_name} > /dev/null
Starting execution of kmeans_k1 
Temperature is currently 32 C
Starting profiling of kmeans_k1 
Profiling concluded. Killing kmeans_k1 with pid: 350909
Temperature is currently 42 C
Sleeping...
/gpfs/alpine/scratch/brantran/gen150/accelwattch-artifact-appendix/accel-sim-framework/gpu-simulator/../accelwattch_hw_profiler/profile_temp_power.sh: line 131: 350909 Killed                  ${!bm_name} > /dev/null
Starting execution of mergeSort_k1 
Temperature is currently 31 C
Starting profiling of mergeSort_k1 
Profiling concluded. Killing mergeSort_k1 with pid: 350930
Temperature is currently 47 C
Sleeping...
/gpfs/alpine/scratch/brantran/gen150/accelwattch-artifact-appendix/accel-sim-framework/gpu-simulator/../accelwattch_hw_profiler/profile_temp_power.sh: line 131: 350930 Killed                  ${!bm_name} > /dev/null
Starting execution of mergeSort_k2 
Temperature is currently 31 C
Starting profiling of mergeSort_k2 
Profiling concluded. Killing mergeSort_k2 with pid: 350985
Temperature is currently 49 C
Sleeping...
/gpfs/alpine/scratch/brantran/gen150/accelwattch-artifact-appendix/accel-sim-framework/gpu-simulator/../accelwattch_hw_profiler/profile_temp_power.sh: line 131: 350985 Killed                  ${!bm_name} > /dev/null



RUNNING POWER/TEMP DUMP WITH WARMUPS AND SLEEPS
Starting execution of kmeans_k1 
Temperature is currently 31 C
Starting profiling of kmeans_k1 
Profiling concluded. Killing kmeans_k1 with pid: 351041
Temperature is currently 43 C
Sleeping...
/gpfs/alpine/scratch/brantran/gen150/accelwattch-artifact-appendix/accel-sim-framework/gpu-simulator/../accelwattch_hw_profiler/profile_temp_power.sh: line 163: 351041 Killed                  ${!bm_name} > /dev/null
Starting execution of mergeSort_k1 
Temperature is currently 31 C
Starting profiling of mergeSort_k1 
Profiling concluded. Killing mergeSort_k1 with pid: 351098
Temperature is currently 47 C
Sleeping...
/gpfs/alpine/scratch/brantran/gen150/accelwattch-artifact-appendix/accel-sim-framework/gpu-simulator/../accelwattch_hw_profiler/profile_temp_power.sh: line 163: 351098 Killed                  ${!bm_name} > /dev/null
Starting execution of mergeSort_k2 
Temperature is currently 31 C
Starting profiling of mergeSort_k2 
Profiling concluded. Killing mergeSort_k2 with pid: 351155
Temperature is currently 50 C
Sleeping...
/gpfs/alpine/scratch/brantran/gen150/accelwattch-artifact-appendix/accel-sim-framework/gpu-simulator/../accelwattch_hw_profiler/profile_temp_power.sh: line 163: 351155 Killed                  ${!bm_name} > /dev/null
Starting execution of kmeans_k1 
Temperature is currently 32 C
Starting profiling of kmeans_k1 
Profiling concluded. Killing kmeans_k1 with pid: 351179
Temperature is currently 42 C
Sleeping...
/gpfs/alpine/scratch/brantran/gen150/accelwattch-artifact-appendix/accel-sim-framework/gpu-simulator/../accelwattch_hw_profiler/profile_temp_power.sh: line 163: 351179 Killed                  ${!bm_name} > /dev/null
Starting execution of mergeSort_k1 
Temperature is currently 31 C
Starting profiling of mergeSort_k1 
Profiling concluded. Killing mergeSort_k1 with pid: 351239
Temperature is currently 47 C
Sleeping...
/gpfs/alpine/scratch/brantran/gen150/accelwattch-artifact-appendix/accel-sim-framework/gpu-simulator/../accelwattch_hw_profiler/profile_temp_power.sh: line 163: 351239 Killed                  ${!bm_name} > /dev/null
Starting execution of mergeSort_k2 
Temperature is currently 32 C
Starting profiling of mergeSort_k2 
Profiling concluded. Killing mergeSort_k2 with pid: 351295
Temperature is currently 50 C
Sleeping...
/gpfs/alpine/scratch/brantran/gen150/accelwattch-artifact-appendix/accel-sim-framework/gpu-simulator/../accelwattch_hw_profiler/profile_temp_power.sh: line 163: 351295 Killed                  ${!bm_name} > /dev/null
Starting execution of kmeans_k1 
Temperature is currently 32 C
Starting profiling of kmeans_k1 
Profiling concluded. Killing kmeans_k1 with pid: 351354
Temperature is currently 43 C
Sleeping...
/gpfs/alpine/scratch/brantran/gen150/accelwattch-artifact-appendix/accel-sim-framework/gpu-simulator/../accelwattch_hw_profiler/profile_temp_power.sh: line 163: 351354 Killed                  ${!bm_name} > /dev/null
Starting execution of mergeSort_k1 
Temperature is currently 31 C
Starting profiling of mergeSort_k1 
Profiling concluded. Killing mergeSort_k1 with pid: 351412
Temperature is currently 48 C
Sleeping...
/gpfs/alpine/scratch/brantran/gen150/accelwattch-artifact-appendix/accel-sim-framework/gpu-simulator/../accelwattch_hw_profiler/profile_temp_power.sh: line 163: 351412 Killed                  ${!bm_name} > /dev/null
Starting execution of mergeSort_k2 
Temperature is currently 31 C
Starting profiling of mergeSort_k2 
Profiling concluded. Killing mergeSort_k2 with pid: 351468
Temperature is currently 49 C
Sleeping...
/gpfs/alpine/scratch/brantran/gen150/accelwattch-artifact-appendix/accel-sim-framework/gpu-simulator/../accelwattch_hw_profiler/profile_temp_power.sh: line 163: 351468 Killed                  ${!bm_name} > /dev/null
Starting execution of kmeans_k1 
Temperature is currently 32 C
Starting profiling of kmeans_k1 
Profiling concluded. Killing kmeans_k1 with pid: 351528
Temperature is currently 42 C
Sleeping...
/gpfs/alpine/scratch/brantran/gen150/accelwattch-artifact-appendix/accel-sim-framework/gpu-simulator/../accelwattch_hw_profiler/profile_temp_power.sh: line 163: 351528 Killed                  ${!bm_name} > /dev/null
Starting execution of mergeSort_k1 
Temperature is currently 31 C
Starting profiling of mergeSort_k1 
Profiling concluded. Killing mergeSort_k1 with pid: 351582
Temperature is currently 48 C
Sleeping...
/gpfs/alpine/scratch/brantran/gen150/accelwattch-artifact-appendix/accel-sim-framework/gpu-simulator/../accelwattch_hw_profiler/profile_temp_power.sh: line 163: 351582 Killed                  ${!bm_name} > /dev/null
Starting execution of mergeSort_k2 
Temperature is currently 32 C
Starting profiling of mergeSort_k2 
Profiling concluded. Killing mergeSort_k2 with pid: 351641
Temperature is currently 50 C
Sleeping...
/gpfs/alpine/scratch/brantran/gen150/accelwattch-artifact-appendix/accel-sim-framework/gpu-simulator/../accelwattch_hw_profiler/profile_temp_power.sh: line 163: 351641 Killed                  ${!bm_name} > /dev/null
Starting execution of kmeans_k1 
Temperature is currently 32 C
Starting profiling of kmeans_k1 
Profiling concluded. Killing kmeans_k1 with pid: 351699
Temperature is currently 43 C
Sleeping...
/gpfs/alpine/scratch/brantran/gen150/accelwattch-artifact-appendix/accel-sim-framework/gpu-simulator/../accelwattch_hw_profiler/profile_temp_power.sh: line 163: 351699 Killed                  ${!bm_name} > /dev/null
Starting execution of mergeSort_k1 
Temperature is currently 31 C
Starting profiling of mergeSort_k1 
Profiling concluded. Killing mergeSort_k1 with pid: 351755
Temperature is currently 47 C
Sleeping...
/gpfs/alpine/scratch/brantran/gen150/accelwattch-artifact-appendix/accel-sim-framework/gpu-simulator/../accelwattch_hw_profiler/profile_temp_power.sh: line 163: 351755 Killed                  ${!bm_name} > /dev/null
Starting execution of mergeSort_k2 
Temperature is currently 32 C
Starting profiling of mergeSort_k2 
Profiling concluded. Killing mergeSort_k2 with pid: 351813
Temperature is currently 49 C
Sleeping...
/gpfs/alpine/scratch/brantran/gen150/accelwattch-artifact-appendix/accel-sim-framework/gpu-simulator/../accelwattch_hw_profiler/profile_temp_power.sh: line 163: 351813 Killed                  ${!bm_name} > /dev/null



RUNNING POWER/TEMP DUMP WITH WARMUP NO SLEEP
Starting execution of kmeans_k1 
Temperature is currently 32 C
Starting profiling of kmeans_k1 
Profiling concluded. Killing kmeans_k1 with pid: 351869
Temperature is currently 43 C
Sleeping...
Starting execution of mergeSort_k1 
Temperature is currently 42 C
/gpfs/alpine/scratch/brantran/gen150/accelwattch-artifact-appendix/accel-sim-framework/gpu-simulator/../accelwattch_hw_profiler/profile_temp_power.sh: line 194: 351869 Killed                  ${!bm_name} > /dev/null
Starting profiling of mergeSort_k1 
Profiling concluded. Killing mergeSort_k1 with pid: 351892
Temperature is currently 48 C
Sleeping...
Starting execution of mergeSort_k2 
Temperature is currently 47 C
/gpfs/alpine/scratch/brantran/gen150/accelwattch-artifact-appendix/accel-sim-framework/gpu-simulator/../accelwattch_hw_profiler/profile_temp_power.sh: line 194: 351892 Killed                  ${!bm_name} > /dev/null
Starting profiling of mergeSort_k2 
Profiling concluded. Killing mergeSort_k2 with pid: 351947
Temperature is currently 49 C
Sleeping...
Starting execution of kmeans_k1 
Temperature is currently 49 C
/gpfs/alpine/scratch/brantran/gen150/accelwattch-artifact-appendix/accel-sim-framework/gpu-simulator/../accelwattch_hw_profiler/profile_temp_power.sh: line 194: 351947 Killed                  ${!bm_name} > /dev/null
Starting profiling of kmeans_k1 
Profiling concluded. Killing kmeans_k1 with pid: 352006
Temperature is currently 43 C
Sleeping...
Starting execution of mergeSort_k1 
Temperature is currently 42 C
/gpfs/alpine/scratch/brantran/gen150/accelwattch-artifact-appendix/accel-sim-framework/gpu-simulator/../accelwattch_hw_profiler/profile_temp_power.sh: line 194: 352006 Killed                  ${!bm_name} > /dev/null
Starting profiling of mergeSort_k1 
Profiling concluded. Killing mergeSort_k1 with pid: 352028
Temperature is currently 48 C
Sleeping...
Starting execution of mergeSort_k2 
Temperature is currently 47 C
/gpfs/alpine/scratch/brantran/gen150/accelwattch-artifact-appendix/accel-sim-framework/gpu-simulator/../accelwattch_hw_profiler/profile_temp_power.sh: line 194: 352028 Killed                  ${!bm_name} > /dev/null
Starting profiling of mergeSort_k2 
Profiling concluded. Killing mergeSort_k2 with pid: 352086
Temperature is currently 50 C
Sleeping...
Starting execution of kmeans_k1 
Temperature is currently 49 C
/gpfs/alpine/scratch/brantran/gen150/accelwattch-artifact-appendix/accel-sim-framework/gpu-simulator/../accelwattch_hw_profiler/profile_temp_power.sh: line 194: 352086 Killed                  ${!bm_name} > /dev/null
Starting profiling of kmeans_k1 
Profiling concluded. Killing kmeans_k1 with pid: 352144
Temperature is currently 42 C
Sleeping...
Starting execution of mergeSort_k1 
Temperature is currently 42 C
/gpfs/alpine/scratch/brantran/gen150/accelwattch-artifact-appendix/accel-sim-framework/gpu-simulator/../accelwattch_hw_profiler/profile_temp_power.sh: line 194: 352144 Killed                  ${!bm_name} > /dev/null
Starting profiling of mergeSort_k1 
Profiling concluded. Killing mergeSort_k1 with pid: 352165
Temperature is currently 48 C
Sleeping...
Starting execution of mergeSort_k2 
Temperature is currently 47 C
/gpfs/alpine/scratch/brantran/gen150/accelwattch-artifact-appendix/accel-sim-framework/gpu-simulator/../accelwattch_hw_profiler/profile_temp_power.sh: line 194: 352165 Killed                  ${!bm_name} > /dev/null
Starting profiling of mergeSort_k2 
Profiling concluded. Killing mergeSort_k2 with pid: 352220
Temperature is currently 49 C
Sleeping...
Starting execution of kmeans_k1 
Temperature is currently 49 C
/gpfs/alpine/scratch/brantran/gen150/accelwattch-artifact-appendix/accel-sim-framework/gpu-simulator/../accelwattch_hw_profiler/profile_temp_power.sh: line 194: 352220 Killed                  ${!bm_name} > /dev/null
Starting profiling of kmeans_k1 
Profiling concluded. Killing kmeans_k1 with pid: 352275
Temperature is currently 43 C
Sleeping...
Starting execution of mergeSort_k1 
Temperature is currently 42 C
/gpfs/alpine/scratch/brantran/gen150/accelwattch-artifact-appendix/accel-sim-framework/gpu-simulator/../accelwattch_hw_profiler/profile_temp_power.sh: line 194: 352275 Killed                  ${!bm_name} > /dev/null
Starting profiling of mergeSort_k1 
Profiling concluded. Killing mergeSort_k1 with pid: 352297
Temperature is currently 48 C
Sleeping...
Starting execution of mergeSort_k2 
Temperature is currently 47 C
/gpfs/alpine/scratch/brantran/gen150/accelwattch-artifact-appendix/accel-sim-framework/gpu-simulator/../accelwattch_hw_profiler/profile_temp_power.sh: line 194: 352297 Killed                  ${!bm_name} > /dev/null
Starting profiling of mergeSort_k2 
Profiling concluded. Killing mergeSort_k2 with pid: 352353
Temperature is currently 49 C
Sleeping...
Starting execution of kmeans_k1 
Temperature is currently 48 C
/gpfs/alpine/scratch/brantran/gen150/accelwattch-artifact-appendix/accel-sim-framework/gpu-simulator/../accelwattch_hw_profiler/profile_temp_power.sh: line 194: 352353 Killed                  ${!bm_name} > /dev/null
Starting profiling of kmeans_k1 
Profiling concluded. Killing kmeans_k1 with pid: 352411
Temperature is currently 43 C
Sleeping...
Starting execution of mergeSort_k1 
Temperature is currently 42 C
/gpfs/alpine/scratch/brantran/gen150/accelwattch-artifact-appendix/accel-sim-framework/gpu-simulator/../accelwattch_hw_profiler/profile_temp_power.sh: line 194: 352411 Killed                  ${!bm_name} > /dev/null
Starting profiling of mergeSort_k1 
Profiling concluded. Killing mergeSort_k1 with pid: 352466
Temperature is currently 47 C
Sleeping...
Starting execution of mergeSort_k2 
Temperature is currently 47 C
/gpfs/alpine/scratch/brantran/gen150/accelwattch-artifact-appendix/accel-sim-framework/gpu-simulator/../accelwattch_hw_profiler/profile_temp_power.sh: line 194: 352466 Killed                  ${!bm_name} > /dev/null
Starting profiling of mergeSort_k2 
Profiling concluded. Killing mergeSort_k2 with pid: 352488
Temperature is currently 50 C
Sleeping...
