####START INFO####
Host information: Node

h37n18
GPU Information: Device_ID GPU_ID
0 GPU-848c9ac1-9174-fcca-069f-89b3e08e5083
1 GPU-dc75d15d-f7a8-c3f5-0614-2acbc9bc6d85
2 GPU-003fab64-7a41-3f17-b0d4-021161c809a5
3 GPU-fcc566a8-70b3-b708-40e4-3ae61290467e
####END   INFO####

The following have been reloaded with a version change:
  1) python/3.8-anaconda3 => python/2.7.15

/gpfs/alpine/scratch/brantran/gen150/accelwattch-artifact-appendix
WARNING ** source setup_environment must be run in a bash, zsh or sh shell; see README
GPGPU-Sim version 4.0.0 (build gpgpu-sim_git-commit-66ae8815dd1a9cd5fcc0e08332ebca323c356863-modified_600.0) configured with AccelWattch.

----------------------------------------------------------------------------
INFO - If you only care about PTX execution, ignore this message. GPGPU-Sim supports PTX execution in modern CUDA.
If you want to run PTXPLUS (sm_1x SASS) with a modern card configuration - set the envronment variable
$PTXAS_CUDA_INSTALL_PATH to point a CUDA version compabible with your card configurations (i.e. 8+ for PASCAL, 9+ for VOLTA etc..)
For example: "export $PTXAS_CUDA_INSTALL_PATH=/usr/local/cuda-9.1"

The following text describes why:
If you are using PTXPLUS, only sm_1x is supported and it requires that the app and simulator binaries are compiled in CUDA 4.2 or less.
The simulator requires it since CUDA headers desribe struct sizes in the exec which change from gen to gen.
The apps require 4.2 because new versions of CUDA tools have dropped parsing support for generating sm_1x
When running using modern config (i.e. volta) and PTXPLUS with CUDA 4.2, the $PTXAS_CUDA_INSTALL_PATH env variable is required to get proper register usage
(and hence occupancy) using a version of CUDA that knows the register usage on the real card.

----------------------------------------------------------------------------
setup_environment succeeded
/gpfs/alpine/scratch/brantran/gen150/accelwattch-artifact-appendix/accel-sim-framework/gpu-simulator
RUNNING POWER/TEMP DUMP WITH ONLY SLEEPS
Starting execution of cutlass_k2 
Temperature is currently 30 C
Starting profiling of cutlass_k2 
Profiling concluded. Killing cutlass_k2 with pid: 317323
Temperature is currently 38 C
Sleeping...
/gpfs/alpine/scratch/brantran/gen150/accelwattch-artifact-appendix/accel-sim-framework/gpu-simulator/../accelwattch_hw_profiler/profile_temp_power.sh: line 131: 317323 Killed                  ${!bm_name} > /dev/null
Starting execution of cutlass_k3 
Temperature is currently 30 C
Starting profiling of cutlass_k3 
Profiling concluded. Killing cutlass_k3 with pid: 317356
Temperature is currently 44 C
Sleeping...
/gpfs/alpine/scratch/brantran/gen150/accelwattch-artifact-appendix/accel-sim-framework/gpu-simulator/../accelwattch_hw_profiler/profile_temp_power.sh: line 131: 317356 Killed                  ${!bm_name} > /dev/null
Starting execution of fastWalshTransform_k1 
Temperature is currently 31 C
Starting profiling of fastWalshTransform_k1 
Profiling concluded. Killing fastWalshTransform_k1 with pid: 317413
Temperature is currently 38 C
Sleeping...
/gpfs/alpine/scratch/brantran/gen150/accelwattch-artifact-appendix/accel-sim-framework/gpu-simulator/../accelwattch_hw_profiler/profile_temp_power.sh: line 131: 317413 Killed                  ${!bm_name} > /dev/null
Starting execution of cutlass_k2 
Temperature is currently 30 C
Starting profiling of cutlass_k2 
Profiling concluded. Killing cutlass_k2 with pid: 317469
Temperature is currently 38 C
Sleeping...
/gpfs/alpine/scratch/brantran/gen150/accelwattch-artifact-appendix/accel-sim-framework/gpu-simulator/../accelwattch_hw_profiler/profile_temp_power.sh: line 131: 317469 Killed                  ${!bm_name} > /dev/null
Starting execution of cutlass_k3 
Temperature is currently 30 C
Starting profiling of cutlass_k3 
Profiling concluded. Killing cutlass_k3 with pid: 317490
Temperature is currently 43 C
Sleeping...
/gpfs/alpine/scratch/brantran/gen150/accelwattch-artifact-appendix/accel-sim-framework/gpu-simulator/../accelwattch_hw_profiler/profile_temp_power.sh: line 131: 317490 Killed                  ${!bm_name} > /dev/null
Starting execution of fastWalshTransform_k1 
Temperature is currently 30 C
Starting profiling of fastWalshTransform_k1 
Profiling concluded. Killing fastWalshTransform_k1 with pid: 317548
Temperature is currently 38 C
Sleeping...
/gpfs/alpine/scratch/brantran/gen150/accelwattch-artifact-appendix/accel-sim-framework/gpu-simulator/../accelwattch_hw_profiler/profile_temp_power.sh: line 131: 317548 Killed                  ${!bm_name} > /dev/null
Starting execution of cutlass_k2 
Temperature is currently 30 C
Starting profiling of cutlass_k2 
Profiling concluded. Killing cutlass_k2 with pid: 317604
Temperature is currently 37 C
Sleeping...
/gpfs/alpine/scratch/brantran/gen150/accelwattch-artifact-appendix/accel-sim-framework/gpu-simulator/../accelwattch_hw_profiler/profile_temp_power.sh: line 131: 317604 Killed                  ${!bm_name} > /dev/null
Starting execution of cutlass_k3 
Temperature is currently 30 C
Starting profiling of cutlass_k3 
Profiling concluded. Killing cutlass_k3 with pid: 317625
Temperature is currently 43 C
Sleeping...
/gpfs/alpine/scratch/brantran/gen150/accelwattch-artifact-appendix/accel-sim-framework/gpu-simulator/../accelwattch_hw_profiler/profile_temp_power.sh: line 131: 317625 Killed                  ${!bm_name} > /dev/null
Starting execution of fastWalshTransform_k1 
Temperature is currently 31 C
Starting profiling of fastWalshTransform_k1 
Profiling concluded. Killing fastWalshTransform_k1 with pid: 317683
Temperature is currently 37 C
Sleeping...
/gpfs/alpine/scratch/brantran/gen150/accelwattch-artifact-appendix/accel-sim-framework/gpu-simulator/../accelwattch_hw_profiler/profile_temp_power.sh: line 131: 317683 Killed                  ${!bm_name} > /dev/null
Starting execution of cutlass_k2 
Temperature is currently 30 C
Starting profiling of cutlass_k2 
Profiling concluded. Killing cutlass_k2 with pid: 317739
Temperature is currently 38 C
Sleeping...
/gpfs/alpine/scratch/brantran/gen150/accelwattch-artifact-appendix/accel-sim-framework/gpu-simulator/../accelwattch_hw_profiler/profile_temp_power.sh: line 131: 317739 Killed                  ${!bm_name} > /dev/null
Starting execution of cutlass_k3 
Temperature is currently 30 C
Starting profiling of cutlass_k3 
Profiling concluded. Killing cutlass_k3 with pid: 317761
Temperature is currently 43 C
Sleeping...
/gpfs/alpine/scratch/brantran/gen150/accelwattch-artifact-appendix/accel-sim-framework/gpu-simulator/../accelwattch_hw_profiler/profile_temp_power.sh: line 131: 317761 Killed                  ${!bm_name} > /dev/null
Starting execution of fastWalshTransform_k1 
Temperature is currently 31 C
Starting profiling of fastWalshTransform_k1 
Profiling concluded. Killing fastWalshTransform_k1 with pid: 317815
Temperature is currently 37 C
Sleeping...
/gpfs/alpine/scratch/brantran/gen150/accelwattch-artifact-appendix/accel-sim-framework/gpu-simulator/../accelwattch_hw_profiler/profile_temp_power.sh: line 131: 317815 Killed                  ${!bm_name} > /dev/null
Starting execution of cutlass_k2 
Temperature is currently 30 C
Starting profiling of cutlass_k2 
Profiling concluded. Killing cutlass_k2 with pid: 317871
Temperature is currently 38 C
Sleeping...
/gpfs/alpine/scratch/brantran/gen150/accelwattch-artifact-appendix/accel-sim-framework/gpu-simulator/../accelwattch_hw_profiler/profile_temp_power.sh: line 131: 317871 Killed                  ${!bm_name} > /dev/null
Starting execution of cutlass_k3 
Temperature is currently 30 C
Starting profiling of cutlass_k3 
Profiling concluded. Killing cutlass_k3 with pid: 317927
Temperature is currently 44 C
Sleeping...
/gpfs/alpine/scratch/brantran/gen150/accelwattch-artifact-appendix/accel-sim-framework/gpu-simulator/../accelwattch_hw_profiler/profile_temp_power.sh: line 131: 317927 Killed                  ${!bm_name} > /dev/null
Starting execution of fastWalshTransform_k1 
Temperature is currently 31 C
Starting profiling of fastWalshTransform_k1 
Profiling concluded. Killing fastWalshTransform_k1 with pid: 317984
Temperature is currently 38 C
Sleeping...
/gpfs/alpine/scratch/brantran/gen150/accelwattch-artifact-appendix/accel-sim-framework/gpu-simulator/../accelwattch_hw_profiler/profile_temp_power.sh: line 131: 317984 Killed                  ${!bm_name} > /dev/null



RUNNING POWER/TEMP DUMP WITH WARMUPS AND SLEEPS
Starting execution of cutlass_k2 
Temperature is currently 30 C
Starting profiling of cutlass_k2 
Profiling concluded. Killing cutlass_k2 with pid: 318005
Temperature is currently 38 C
Sleeping...
/gpfs/alpine/scratch/brantran/gen150/accelwattch-artifact-appendix/accel-sim-framework/gpu-simulator/../accelwattch_hw_profiler/profile_temp_power.sh: line 163: 318005 Killed                  ${!bm_name} > /dev/null
Starting execution of cutlass_k3 
Temperature is currently 30 C
Starting profiling of cutlass_k3 
Profiling concluded. Killing cutlass_k3 with pid: 318060
Temperature is currently 44 C
Sleeping...
/gpfs/alpine/scratch/brantran/gen150/accelwattch-artifact-appendix/accel-sim-framework/gpu-simulator/../accelwattch_hw_profiler/profile_temp_power.sh: line 163: 318060 Killed                  ${!bm_name} > /dev/null
Starting execution of fastWalshTransform_k1 
Temperature is currently 31 C
Starting profiling of fastWalshTransform_k1 
Profiling concluded. Killing fastWalshTransform_k1 with pid: 318119
Temperature is currently 38 C
Sleeping...
/gpfs/alpine/scratch/brantran/gen150/accelwattch-artifact-appendix/accel-sim-framework/gpu-simulator/../accelwattch_hw_profiler/profile_temp_power.sh: line 163: 318119 Killed                  ${!bm_name} > /dev/null
Starting execution of cutlass_k2 
Temperature is currently 30 C
Starting profiling of cutlass_k2 
Profiling concluded. Killing cutlass_k2 with pid: 318178
Temperature is currently 38 C
Sleeping...
/gpfs/alpine/scratch/brantran/gen150/accelwattch-artifact-appendix/accel-sim-framework/gpu-simulator/../accelwattch_hw_profiler/profile_temp_power.sh: line 163: 318178 Killed                  ${!bm_name} > /dev/null
Starting execution of cutlass_k3 
Temperature is currently 30 C
Starting profiling of cutlass_k3 
Profiling concluded. Killing cutlass_k3 with pid: 318234
Temperature is currently 44 C
Sleeping...
/gpfs/alpine/scratch/brantran/gen150/accelwattch-artifact-appendix/accel-sim-framework/gpu-simulator/../accelwattch_hw_profiler/profile_temp_power.sh: line 163: 318234 Killed                  ${!bm_name} > /dev/null
Starting execution of fastWalshTransform_k1 
Temperature is currently 31 C
Starting profiling of fastWalshTransform_k1 
Profiling concluded. Killing fastWalshTransform_k1 with pid: 318292
Temperature is currently 37 C
Sleeping...
/gpfs/alpine/scratch/brantran/gen150/accelwattch-artifact-appendix/accel-sim-framework/gpu-simulator/../accelwattch_hw_profiler/profile_temp_power.sh: line 163: 318292 Killed                  ${!bm_name} > /dev/null
Starting execution of cutlass_k2 
Temperature is currently 31 C
Starting profiling of cutlass_k2 
Profiling concluded. Killing cutlass_k2 with pid: 318350
Temperature is currently 37 C
Sleeping...
/gpfs/alpine/scratch/brantran/gen150/accelwattch-artifact-appendix/accel-sim-framework/gpu-simulator/../accelwattch_hw_profiler/profile_temp_power.sh: line 163: 318350 Killed                  ${!bm_name} > /dev/null
Starting execution of cutlass_k3 
Temperature is currently 30 C
Starting profiling of cutlass_k3 
Profiling concluded. Killing cutlass_k3 with pid: 318409
Temperature is currently 43 C
Sleeping...
/gpfs/alpine/scratch/brantran/gen150/accelwattch-artifact-appendix/accel-sim-framework/gpu-simulator/../accelwattch_hw_profiler/profile_temp_power.sh: line 163: 318409 Killed                  ${!bm_name} > /dev/null
Starting execution of fastWalshTransform_k1 
Temperature is currently 31 C
Starting profiling of fastWalshTransform_k1 
Profiling concluded. Killing fastWalshTransform_k1 with pid: 318467
Temperature is currently 38 C
Sleeping...
/gpfs/alpine/scratch/brantran/gen150/accelwattch-artifact-appendix/accel-sim-framework/gpu-simulator/../accelwattch_hw_profiler/profile_temp_power.sh: line 163: 318467 Killed                  ${!bm_name} > /dev/null
Starting execution of cutlass_k2 
Temperature is currently 30 C
Starting profiling of cutlass_k2 
Profiling concluded. Killing cutlass_k2 with pid: 318522
Temperature is currently 38 C
Sleeping...
/gpfs/alpine/scratch/brantran/gen150/accelwattch-artifact-appendix/accel-sim-framework/gpu-simulator/../accelwattch_hw_profiler/profile_temp_power.sh: line 163: 318522 Killed                  ${!bm_name} > /dev/null
Starting execution of cutlass_k3 
Temperature is currently 30 C
Starting profiling of cutlass_k3 
Profiling concluded. Killing cutlass_k3 with pid: 318578
Temperature is currently 43 C
Sleeping...
/gpfs/alpine/scratch/brantran/gen150/accelwattch-artifact-appendix/accel-sim-framework/gpu-simulator/../accelwattch_hw_profiler/profile_temp_power.sh: line 163: 318578 Killed                  ${!bm_name} > /dev/null
Starting execution of fastWalshTransform_k1 
Temperature is currently 31 C
Starting profiling of fastWalshTransform_k1 
Profiling concluded. Killing fastWalshTransform_k1 with pid: 318633
Temperature is currently 37 C
Sleeping...
/gpfs/alpine/scratch/brantran/gen150/accelwattch-artifact-appendix/accel-sim-framework/gpu-simulator/../accelwattch_hw_profiler/profile_temp_power.sh: line 163: 318633 Killed                  ${!bm_name} > /dev/null
Starting execution of cutlass_k2 
Temperature is currently 31 C
Starting profiling of cutlass_k2 
Profiling concluded. Killing cutlass_k2 with pid: 318691
Temperature is currently 37 C
Sleeping...
/gpfs/alpine/scratch/brantran/gen150/accelwattch-artifact-appendix/accel-sim-framework/gpu-simulator/../accelwattch_hw_profiler/profile_temp_power.sh: line 163: 318691 Killed                  ${!bm_name} > /dev/null
Starting execution of cutlass_k3 
Temperature is currently 30 C
Starting profiling of cutlass_k3 
Profiling concluded. Killing cutlass_k3 with pid: 318756
Temperature is currently 43 C
Sleeping...
/gpfs/alpine/scratch/brantran/gen150/accelwattch-artifact-appendix/accel-sim-framework/gpu-simulator/../accelwattch_hw_profiler/profile_temp_power.sh: line 163: 318756 Killed                  ${!bm_name} > /dev/null
Starting execution of fastWalshTransform_k1 
Temperature is currently 31 C
Starting profiling of fastWalshTransform_k1 
Profiling concluded. Killing fastWalshTransform_k1 with pid: 318778
Temperature is currently 38 C
Sleeping...
/gpfs/alpine/scratch/brantran/gen150/accelwattch-artifact-appendix/accel-sim-framework/gpu-simulator/../accelwattch_hw_profiler/profile_temp_power.sh: line 163: 318778 Killed                  ${!bm_name} > /dev/null



RUNNING POWER/TEMP DUMP WITH WARMUP NO SLEEP
Starting execution of cutlass_k2 
Temperature is currently 31 C
Starting profiling of cutlass_k2 
Profiling concluded. Killing cutlass_k2 with pid: 318836
Temperature is currently 38 C
Sleeping...
Starting execution of cutlass_k3 
Temperature is currently 37 C
/gpfs/alpine/scratch/brantran/gen150/accelwattch-artifact-appendix/accel-sim-framework/gpu-simulator/../accelwattch_hw_profiler/profile_temp_power.sh: line 194: 318836 Killed                  ${!bm_name} > /dev/null
Starting profiling of cutlass_k3 
Profiling concluded. Killing cutlass_k3 with pid: 318888
Temperature is currently 44 C
Sleeping...
Starting execution of fastWalshTransform_k1 
Temperature is currently 43 C
/gpfs/alpine/scratch/brantran/gen150/accelwattch-artifact-appendix/accel-sim-framework/gpu-simulator/../accelwattch_hw_profiler/profile_temp_power.sh: line 194: 318888 Killed                  ${!bm_name} > /dev/null
Starting profiling of fastWalshTransform_k1 
Profiling concluded. Killing fastWalshTransform_k1 with pid: 318945
Temperature is currently 38 C
Sleeping...
Starting execution of cutlass_k2 
Temperature is currently 37 C
/gpfs/alpine/scratch/brantran/gen150/accelwattch-artifact-appendix/accel-sim-framework/gpu-simulator/../accelwattch_hw_profiler/profile_temp_power.sh: line 194: 318945 Killed                  ${!bm_name} > /dev/null
Starting profiling of cutlass_k2 
Profiling concluded. Killing cutlass_k2 with pid: 318967
Temperature is currently 37 C
Sleeping...
Starting execution of cutlass_k3 
Temperature is currently 37 C
/gpfs/alpine/scratch/brantran/gen150/accelwattch-artifact-appendix/accel-sim-framework/gpu-simulator/../accelwattch_hw_profiler/profile_temp_power.sh: line 194: 318967 Killed                  ${!bm_name} > /dev/null
Starting profiling of cutlass_k3 
Profiling concluded. Killing cutlass_k3 with pid: 319023
Temperature is currently 43 C
Sleeping...
Starting execution of fastWalshTransform_k1 
Temperature is currently 43 C
/gpfs/alpine/scratch/brantran/gen150/accelwattch-artifact-appendix/accel-sim-framework/gpu-simulator/../accelwattch_hw_profiler/profile_temp_power.sh: line 194: 319023 Killed                  ${!bm_name} > /dev/null
Starting profiling of fastWalshTransform_k1 
Profiling concluded. Killing fastWalshTransform_k1 with pid: 319083
Temperature is currently 38 C
Sleeping...
Starting execution of cutlass_k2 
Temperature is currently 37 C
/gpfs/alpine/scratch/brantran/gen150/accelwattch-artifact-appendix/accel-sim-framework/gpu-simulator/../accelwattch_hw_profiler/profile_temp_power.sh: line 194: 319083 Killed                  ${!bm_name} > /dev/null
Starting profiling of cutlass_k2 
Profiling concluded. Killing cutlass_k2 with pid: 319111
Temperature is currently 38 C
Sleeping...
Starting execution of cutlass_k3 
Temperature is currently 37 C
/gpfs/alpine/scratch/brantran/gen150/accelwattch-artifact-appendix/accel-sim-framework/gpu-simulator/../accelwattch_hw_profiler/profile_temp_power.sh: line 194: 319111 Killed                  ${!bm_name} > /dev/null
Starting profiling of cutlass_k3 
Profiling concluded. Killing cutlass_k3 with pid: 319166
Temperature is currently 44 C
Sleeping...
Starting execution of fastWalshTransform_k1 
Temperature is currently 43 C
/gpfs/alpine/scratch/brantran/gen150/accelwattch-artifact-appendix/accel-sim-framework/gpu-simulator/../accelwattch_hw_profiler/profile_temp_power.sh: line 194: 319166 Killed                  ${!bm_name} > /dev/null
Starting profiling of fastWalshTransform_k1 
Profiling concluded. Killing fastWalshTransform_k1 with pid: 319222
Temperature is currently 37 C
Sleeping...
Starting execution of cutlass_k2 
Temperature is currently 37 C
/gpfs/alpine/scratch/brantran/gen150/accelwattch-artifact-appendix/accel-sim-framework/gpu-simulator/../accelwattch_hw_profiler/profile_temp_power.sh: line 194: 319222 Killed                  ${!bm_name} > /dev/null
Starting profiling of cutlass_k2 
Profiling concluded. Killing cutlass_k2 with pid: 319243
Temperature is currently 37 C
Sleeping...
Starting execution of cutlass_k3 
Temperature is currently 37 C
/gpfs/alpine/scratch/brantran/gen150/accelwattch-artifact-appendix/accel-sim-framework/gpu-simulator/../accelwattch_hw_profiler/profile_temp_power.sh: line 194: 319243 Killed                  ${!bm_name} > /dev/null
Starting profiling of cutlass_k3 
Profiling concluded. Killing cutlass_k3 with pid: 319300
Temperature is currently 44 C
Sleeping...
Starting execution of fastWalshTransform_k1 
Temperature is currently 43 C
/gpfs/alpine/scratch/brantran/gen150/accelwattch-artifact-appendix/accel-sim-framework/gpu-simulator/../accelwattch_hw_profiler/profile_temp_power.sh: line 194: 319300 Killed                  ${!bm_name} > /dev/null
Starting profiling of fastWalshTransform_k1 
Profiling concluded. Killing fastWalshTransform_k1 with pid: 319354
Temperature is currently 37 C
Sleeping...
Starting execution of cutlass_k2 
Temperature is currently 37 C
/gpfs/alpine/scratch/brantran/gen150/accelwattch-artifact-appendix/accel-sim-framework/gpu-simulator/../accelwattch_hw_profiler/profile_temp_power.sh: line 194: 319354 Killed                  ${!bm_name} > /dev/null
Starting profiling of cutlass_k2 
Profiling concluded. Killing cutlass_k2 with pid: 319376
Temperature is currently 38 C
Sleeping...
Starting execution of cutlass_k3 
Temperature is currently 37 C
/gpfs/alpine/scratch/brantran/gen150/accelwattch-artifact-appendix/accel-sim-framework/gpu-simulator/../accelwattch_hw_profiler/profile_temp_power.sh: line 194: 319376 Killed                  ${!bm_name} > /dev/null
Starting profiling of cutlass_k3 
Profiling concluded. Killing cutlass_k3 with pid: 319432
Temperature is currently 44 C
Sleeping...
Starting execution of fastWalshTransform_k1 
Temperature is currently 43 C
/gpfs/alpine/scratch/brantran/gen150/accelwattch-artifact-appendix/accel-sim-framework/gpu-simulator/../accelwattch_hw_profiler/profile_temp_power.sh: line 194: 319432 Killed                  ${!bm_name} > /dev/null
Starting profiling of fastWalshTransform_k1 
Profiling concluded. Killing fastWalshTransform_k1 with pid: 319489
Temperature is currently 38 C
Sleeping...
