####START INFO####
Host information: Node

a05n06
GPU Information: Device_ID GPU_ID
0 GPU-848c9ac1-9174-fcca-069f-89b3e08e5083
1 GPU-dc75d15d-f7a8-c3f5-0614-2acbc9bc6d85
2 GPU-003fab64-7a41-3f17-b0d4-021161c809a5
3 GPU-fcc566a8-70b3-b708-40e4-3ae61290467e
####END   INFO####

The following have been reloaded with a version change:
  1) python/3.8-anaconda3 => python/2.7.15

/gpfs/alpine/scratch/brantran/gen150/accelwattch-artifact-appendix
WARNING ** source setup_environment must be run in a bash, zsh or sh shell; see README
GPGPU-Sim version 4.0.0 (build gpgpu-sim_git-commit-66ae8815dd1a9cd5fcc0e08332ebca323c356863-modified_600.0) configured with AccelWattch.

----------------------------------------------------------------------------
INFO - If you only care about PTX execution, ignore this message. GPGPU-Sim supports PTX execution in modern CUDA.
If you want to run PTXPLUS (sm_1x SASS) with a modern card configuration - set the envronment variable
$PTXAS_CUDA_INSTALL_PATH to point a CUDA version compabible with your card configurations (i.e. 8+ for PASCAL, 9+ for VOLTA etc..)
For example: "export $PTXAS_CUDA_INSTALL_PATH=/usr/local/cuda-9.1"

The following text describes why:
If you are using PTXPLUS, only sm_1x is supported and it requires that the app and simulator binaries are compiled in CUDA 4.2 or less.
The simulator requires it since CUDA headers desribe struct sizes in the exec which change from gen to gen.
The apps require 4.2 because new versions of CUDA tools have dropped parsing support for generating sm_1x
When running using modern config (i.e. volta) and PTXPLUS with CUDA 4.2, the $PTXAS_CUDA_INSTALL_PATH env variable is required to get proper register usage
(and hence occupancy) using a version of CUDA that knows the register usage on the real card.

----------------------------------------------------------------------------
setup_environment succeeded
/gpfs/alpine/scratch/brantran/gen150/accelwattch-artifact-appendix/accel-sim-framework/gpu-simulator
RUNNING POWER/TEMP DUMP WITH ONLY SLEEPS
Starting execution of parboil_mriq_k1 
Temperature is currently 30 C
Starting profiling of parboil_mriq_k1 
Profiling concluded. Killing parboil_mriq_k1 with pid: 371230
Temperature is currently 48 C
Sleeping...
/gpfs/alpine/scratch/brantran/gen150/accelwattch-artifact-appendix/accel-sim-framework/gpu-simulator/../accelwattch_hw_profiler/profile_temp_power.sh: line 131: 371230 Killed                  ${!bm_name} > /dev/null
Starting execution of parboil_sad_k1 
Temperature is currently 31 C
Starting profiling of parboil_sad_k1 
Profiling concluded. Killing parboil_sad_k1 with pid: 371295
Temperature is currently 42 C
Sleeping...
/gpfs/alpine/scratch/brantran/gen150/accelwattch-artifact-appendix/accel-sim-framework/gpu-simulator/../accelwattch_hw_profiler/profile_temp_power.sh: line 131: 371295 Killed                  ${!bm_name} > /dev/null
Starting execution of parboil_sgemm_k1 
Temperature is currently 31 C
Starting profiling of parboil_sgemm_k1 
Profiling concluded. Killing parboil_sgemm_k1 with pid: 371318
Temperature is currently 52 C
Sleeping...
/gpfs/alpine/scratch/brantran/gen150/accelwattch-artifact-appendix/accel-sim-framework/gpu-simulator/../accelwattch_hw_profiler/profile_temp_power.sh: line 131: 371318 Killed                  ${!bm_name} > /dev/null
Starting execution of parboil_mriq_k1 
Temperature is currently 31 C
Starting profiling of parboil_mriq_k1 
Profiling concluded. Killing parboil_mriq_k1 with pid: 371373
Temperature is currently 50 C
Sleeping...
/gpfs/alpine/scratch/brantran/gen150/accelwattch-artifact-appendix/accel-sim-framework/gpu-simulator/../accelwattch_hw_profiler/profile_temp_power.sh: line 131: 371373 Killed                  ${!bm_name} > /dev/null
Starting execution of parboil_sad_k1 
Temperature is currently 31 C
Starting profiling of parboil_sad_k1 
Profiling concluded. Killing parboil_sad_k1 with pid: 371429
Temperature is currently 43 C
Sleeping...
/gpfs/alpine/scratch/brantran/gen150/accelwattch-artifact-appendix/accel-sim-framework/gpu-simulator/../accelwattch_hw_profiler/profile_temp_power.sh: line 131: 371429 Killed                  ${!bm_name} > /dev/null
Starting execution of parboil_sgemm_k1 
Temperature is currently 31 C
Starting profiling of parboil_sgemm_k1 
Profiling concluded. Killing parboil_sgemm_k1 with pid: 371450
Temperature is currently 53 C
Sleeping...
/gpfs/alpine/scratch/brantran/gen150/accelwattch-artifact-appendix/accel-sim-framework/gpu-simulator/../accelwattch_hw_profiler/profile_temp_power.sh: line 131: 371450 Killed                  ${!bm_name} > /dev/null
Starting execution of parboil_mriq_k1 
Temperature is currently 31 C
Starting profiling of parboil_mriq_k1 
Profiling concluded. Killing parboil_mriq_k1 with pid: 371506
Temperature is currently 49 C
Sleeping...
/gpfs/alpine/scratch/brantran/gen150/accelwattch-artifact-appendix/accel-sim-framework/gpu-simulator/../accelwattch_hw_profiler/profile_temp_power.sh: line 131: 371506 Killed                  ${!bm_name} > /dev/null
Starting execution of parboil_sad_k1 
Temperature is currently 31 C
Starting profiling of parboil_sad_k1 
Profiling concluded. Killing parboil_sad_k1 with pid: 371564
Temperature is currently 42 C
Sleeping...
/gpfs/alpine/scratch/brantran/gen150/accelwattch-artifact-appendix/accel-sim-framework/gpu-simulator/../accelwattch_hw_profiler/profile_temp_power.sh: line 131: 371564 Killed                  ${!bm_name} > /dev/null
Starting execution of parboil_sgemm_k1 
Temperature is currently 31 C
Starting profiling of parboil_sgemm_k1 
Profiling concluded. Killing parboil_sgemm_k1 with pid: 371585
Temperature is currently 52 C
Sleeping...
/gpfs/alpine/scratch/brantran/gen150/accelwattch-artifact-appendix/accel-sim-framework/gpu-simulator/../accelwattch_hw_profiler/profile_temp_power.sh: line 131: 371585 Killed                  ${!bm_name} > /dev/null
Starting execution of parboil_mriq_k1 
Temperature is currently 31 C
Starting profiling of parboil_mriq_k1 
Profiling concluded. Killing parboil_mriq_k1 with pid: 371642
Temperature is currently 50 C
Sleeping...
/gpfs/alpine/scratch/brantran/gen150/accelwattch-artifact-appendix/accel-sim-framework/gpu-simulator/../accelwattch_hw_profiler/profile_temp_power.sh: line 131: 371642 Killed                  ${!bm_name} > /dev/null
Starting execution of parboil_sad_k1 
Temperature is currently 31 C
Starting profiling of parboil_sad_k1 
Profiling concluded. Killing parboil_sad_k1 with pid: 371699
Temperature is currently 43 C
Sleeping...
/gpfs/alpine/scratch/brantran/gen150/accelwattch-artifact-appendix/accel-sim-framework/gpu-simulator/../accelwattch_hw_profiler/profile_temp_power.sh: line 131: 371699 Killed                  ${!bm_name} > /dev/null
Starting execution of parboil_sgemm_k1 
Temperature is currently 31 C
Starting profiling of parboil_sgemm_k1 
Profiling concluded. Killing parboil_sgemm_k1 with pid: 371720
Temperature is currently 52 C
Sleeping...
/gpfs/alpine/scratch/brantran/gen150/accelwattch-artifact-appendix/accel-sim-framework/gpu-simulator/../accelwattch_hw_profiler/profile_temp_power.sh: line 131: 371720 Killed                  ${!bm_name} > /dev/null
Starting execution of parboil_mriq_k1 
Temperature is currently 31 C
Starting profiling of parboil_mriq_k1 
Profiling concluded. Killing parboil_mriq_k1 with pid: 371811
Temperature is currently 49 C
Sleeping...
/gpfs/alpine/scratch/brantran/gen150/accelwattch-artifact-appendix/accel-sim-framework/gpu-simulator/../accelwattch_hw_profiler/profile_temp_power.sh: line 131: 371811 Killed                  ${!bm_name} > /dev/null
Starting execution of parboil_sad_k1 
Temperature is currently 31 C
Starting profiling of parboil_sad_k1 
Profiling concluded. Killing parboil_sad_k1 with pid: 371833
Temperature is currently 43 C
Sleeping...
/gpfs/alpine/scratch/brantran/gen150/accelwattch-artifact-appendix/accel-sim-framework/gpu-simulator/../accelwattch_hw_profiler/profile_temp_power.sh: line 131: 371833 Killed                  ${!bm_name} > /dev/null
Starting execution of parboil_sgemm_k1 
Temperature is currently 31 C
Starting profiling of parboil_sgemm_k1 
Profiling concluded. Killing parboil_sgemm_k1 with pid: 371890
Temperature is currently 51 C
Sleeping...
/gpfs/alpine/scratch/brantran/gen150/accelwattch-artifact-appendix/accel-sim-framework/gpu-simulator/../accelwattch_hw_profiler/profile_temp_power.sh: line 131: 371890 Killed                  ${!bm_name} > /dev/null



RUNNING POWER/TEMP DUMP WITH WARMUPS AND SLEEPS
Starting execution of parboil_mriq_k1 
Temperature is currently 31 C
Starting profiling of parboil_mriq_k1 
Profiling concluded. Killing parboil_mriq_k1 with pid: 371945
Temperature is currently 49 C
Sleeping...
/gpfs/alpine/scratch/brantran/gen150/accelwattch-artifact-appendix/accel-sim-framework/gpu-simulator/../accelwattch_hw_profiler/profile_temp_power.sh: line 163: 371945 Killed                  ${!bm_name} > /dev/null
Starting execution of parboil_sad_k1 
Temperature is currently 31 C
Starting profiling of parboil_sad_k1 
Profiling concluded. Killing parboil_sad_k1 with pid: 372001
Temperature is currently 43 C
Sleeping...
/gpfs/alpine/scratch/brantran/gen150/accelwattch-artifact-appendix/accel-sim-framework/gpu-simulator/../accelwattch_hw_profiler/profile_temp_power.sh: line 163: 372001 Killed                  ${!bm_name} > /dev/null
Starting execution of parboil_sgemm_k1 
Temperature is currently 31 C
Starting profiling of parboil_sgemm_k1 
Profiling concluded. Killing parboil_sgemm_k1 with pid: 372059
Temperature is currently 51 C
Sleeping...
/gpfs/alpine/scratch/brantran/gen150/accelwattch-artifact-appendix/accel-sim-framework/gpu-simulator/../accelwattch_hw_profiler/profile_temp_power.sh: line 163: 372059 Killed                  ${!bm_name} > /dev/null
Starting execution of parboil_mriq_k1 
Temperature is currently 32 C
Starting profiling of parboil_mriq_k1 
Profiling concluded. Killing parboil_mriq_k1 with pid: 372083
Temperature is currently 50 C
Sleeping...
/gpfs/alpine/scratch/brantran/gen150/accelwattch-artifact-appendix/accel-sim-framework/gpu-simulator/../accelwattch_hw_profiler/profile_temp_power.sh: line 163: 372083 Killed                  ${!bm_name} > /dev/null
Starting execution of parboil_sad_k1 
Temperature is currently 32 C
Starting profiling of parboil_sad_k1 
Profiling concluded. Killing parboil_sad_k1 with pid: 372139
Temperature is currently 42 C
Sleeping...
/gpfs/alpine/scratch/brantran/gen150/accelwattch-artifact-appendix/accel-sim-framework/gpu-simulator/../accelwattch_hw_profiler/profile_temp_power.sh: line 163: 372139 Killed                  ${!bm_name} > /dev/null
Starting execution of parboil_sgemm_k1 
Temperature is currently 31 C
Starting profiling of parboil_sgemm_k1 
Profiling concluded. Killing parboil_sgemm_k1 with pid: 372196
Temperature is currently 52 C
Sleeping...
/gpfs/alpine/scratch/brantran/gen150/accelwattch-artifact-appendix/accel-sim-framework/gpu-simulator/../accelwattch_hw_profiler/profile_temp_power.sh: line 163: 372196 Killed                  ${!bm_name} > /dev/null
Starting execution of parboil_mriq_k1 
Temperature is currently 32 C
Starting profiling of parboil_mriq_k1 
Profiling concluded. Killing parboil_mriq_k1 with pid: 372254
Temperature is currently 50 C
Sleeping...
/gpfs/alpine/scratch/brantran/gen150/accelwattch-artifact-appendix/accel-sim-framework/gpu-simulator/../accelwattch_hw_profiler/profile_temp_power.sh: line 163: 372254 Killed                  ${!bm_name} > /dev/null
Starting execution of parboil_sad_k1 
Temperature is currently 31 C
Starting profiling of parboil_sad_k1 
Profiling concluded. Killing parboil_sad_k1 with pid: 372310
Temperature is currently 42 C
Sleeping...
/gpfs/alpine/scratch/brantran/gen150/accelwattch-artifact-appendix/accel-sim-framework/gpu-simulator/../accelwattch_hw_profiler/profile_temp_power.sh: line 163: 372310 Killed                  ${!bm_name} > /dev/null
Starting execution of parboil_sgemm_k1 
Temperature is currently 31 C
Starting profiling of parboil_sgemm_k1 
Profiling concluded. Killing parboil_sgemm_k1 with pid: 372366
Temperature is currently 51 C
Sleeping...
/gpfs/alpine/scratch/brantran/gen150/accelwattch-artifact-appendix/accel-sim-framework/gpu-simulator/../accelwattch_hw_profiler/profile_temp_power.sh: line 163: 372366 Killed                  ${!bm_name} > /dev/null
Starting execution of parboil_mriq_k1 
Temperature is currently 31 C
Starting profiling of parboil_mriq_k1 
Profiling concluded. Killing parboil_mriq_k1 with pid: 372427
Temperature is currently 50 C
Sleeping...
/gpfs/alpine/scratch/brantran/gen150/accelwattch-artifact-appendix/accel-sim-framework/gpu-simulator/../accelwattch_hw_profiler/profile_temp_power.sh: line 163: 372427 Killed                  ${!bm_name} > /dev/null
Starting execution of parboil_sad_k1 
Temperature is currently 31 C
Starting profiling of parboil_sad_k1 
Profiling concluded. Killing parboil_sad_k1 with pid: 372486
Temperature is currently 43 C
Sleeping...
/gpfs/alpine/scratch/brantran/gen150/accelwattch-artifact-appendix/accel-sim-framework/gpu-simulator/../accelwattch_hw_profiler/profile_temp_power.sh: line 163: 372486 Killed                  ${!bm_name} > /dev/null
Starting execution of parboil_sgemm_k1 
Temperature is currently 31 C
Starting profiling of parboil_sgemm_k1 
Profiling concluded. Killing parboil_sgemm_k1 with pid: 372545
Temperature is currently 53 C
Sleeping...
/gpfs/alpine/scratch/brantran/gen150/accelwattch-artifact-appendix/accel-sim-framework/gpu-simulator/../accelwattch_hw_profiler/profile_temp_power.sh: line 163: 372545 Killed                  ${!bm_name} > /dev/null
Starting execution of parboil_mriq_k1 
Temperature is currently 32 C
Starting profiling of parboil_mriq_k1 
Profiling concluded. Killing parboil_mriq_k1 with pid: 372603
Temperature is currently 49 C
Sleeping...
/gpfs/alpine/scratch/brantran/gen150/accelwattch-artifact-appendix/accel-sim-framework/gpu-simulator/../accelwattch_hw_profiler/profile_temp_power.sh: line 163: 372603 Killed                  ${!bm_name} > /dev/null
Starting execution of parboil_sad_k1 
Temperature is currently 31 C
Starting profiling of parboil_sad_k1 
Profiling concluded. Killing parboil_sad_k1 with pid: 372660
Temperature is currently 42 C
Sleeping...
/gpfs/alpine/scratch/brantran/gen150/accelwattch-artifact-appendix/accel-sim-framework/gpu-simulator/../accelwattch_hw_profiler/profile_temp_power.sh: line 163: 372660 Killed                  ${!bm_name} > /dev/null
Starting execution of parboil_sgemm_k1 
Temperature is currently 31 C
Starting profiling of parboil_sgemm_k1 
Profiling concluded. Killing parboil_sgemm_k1 with pid: 372720
Temperature is currently 52 C
Sleeping...
/gpfs/alpine/scratch/brantran/gen150/accelwattch-artifact-appendix/accel-sim-framework/gpu-simulator/../accelwattch_hw_profiler/profile_temp_power.sh: line 163: 372720 Killed                  ${!bm_name} > /dev/null



RUNNING POWER/TEMP DUMP WITH WARMUP NO SLEEP
Starting execution of parboil_mriq_k1 
Temperature is currently 31 C
Starting profiling of parboil_mriq_k1 
Profiling concluded. Killing parboil_mriq_k1 with pid: 372777
Temperature is currently 49 C
Sleeping...
Starting execution of parboil_sad_k1 
Temperature is currently 48 C
/gpfs/alpine/scratch/brantran/gen150/accelwattch-artifact-appendix/accel-sim-framework/gpu-simulator/../accelwattch_hw_profiler/profile_temp_power.sh: line 194: 372777 Killed                  ${!bm_name} > /dev/null
Starting profiling of parboil_sad_k1 
Profiling concluded. Killing parboil_sad_k1 with pid: 372794
Temperature is currently 43 C
Sleeping...
Starting execution of parboil_sgemm_k1 
Temperature is currently 42 C
/gpfs/alpine/scratch/brantran/gen150/accelwattch-artifact-appendix/accel-sim-framework/gpu-simulator/../accelwattch_hw_profiler/profile_temp_power.sh: line 194: 372794 Killed                  ${!bm_name} > /dev/null
Starting profiling of parboil_sgemm_k1 
Profiling concluded. Killing parboil_sgemm_k1 with pid: 372852
Temperature is currently 53 C
Sleeping...
Starting execution of parboil_mriq_k1 
Temperature is currently 51 C
/gpfs/alpine/scratch/brantran/gen150/accelwattch-artifact-appendix/accel-sim-framework/gpu-simulator/../accelwattch_hw_profiler/profile_temp_power.sh: line 194: 372852 Killed                  ${!bm_name} > /dev/null
Starting profiling of parboil_mriq_k1 
Profiling concluded. Killing parboil_mriq_k1 with pid: 372909
Temperature is currently 50 C
Sleeping...
Starting execution of parboil_sad_k1 
Temperature is currently 48 C
/gpfs/alpine/scratch/brantran/gen150/accelwattch-artifact-appendix/accel-sim-framework/gpu-simulator/../accelwattch_hw_profiler/profile_temp_power.sh: line 194: 372909 Killed                  ${!bm_name} > /dev/null
Starting profiling of parboil_sad_k1 
Profiling concluded. Killing parboil_sad_k1 with pid: 372931
Temperature is currently 43 C
Sleeping...
Starting execution of parboil_sgemm_k1 
Temperature is currently 42 C
/gpfs/alpine/scratch/brantran/gen150/accelwattch-artifact-appendix/accel-sim-framework/gpu-simulator/../accelwattch_hw_profiler/profile_temp_power.sh: line 194: 372931 Killed                  ${!bm_name} > /dev/null
Starting profiling of parboil_sgemm_k1 
Profiling concluded. Killing parboil_sgemm_k1 with pid: 372989
Temperature is currently 51 C
Sleeping...
Starting execution of parboil_mriq_k1 
Temperature is currently 51 C
/gpfs/alpine/scratch/brantran/gen150/accelwattch-artifact-appendix/accel-sim-framework/gpu-simulator/../accelwattch_hw_profiler/profile_temp_power.sh: line 194: 372989 Killed                  ${!bm_name} > /dev/null
Starting profiling of parboil_mriq_k1 
Profiling concluded. Killing parboil_mriq_k1 with pid: 373047
Temperature is currently 51 C
Sleeping...
Starting execution of parboil_sad_k1 
Temperature is currently 50 C
/gpfs/alpine/scratch/brantran/gen150/accelwattch-artifact-appendix/accel-sim-framework/gpu-simulator/../accelwattch_hw_profiler/profile_temp_power.sh: line 194: 373047 Killed                  ${!bm_name} > /dev/null
Starting profiling of parboil_sad_k1 
Profiling concluded. Killing parboil_sad_k1 with pid: 373068
Temperature is currently 43 C
Sleeping...
Starting execution of parboil_sgemm_k1 
Temperature is currently 42 C
/gpfs/alpine/scratch/brantran/gen150/accelwattch-artifact-appendix/accel-sim-framework/gpu-simulator/../accelwattch_hw_profiler/profile_temp_power.sh: line 194: 373068 Killed                  ${!bm_name} > /dev/null
Starting profiling of parboil_sgemm_k1 
Profiling concluded. Killing parboil_sgemm_k1 with pid: 373123
Temperature is currently 53 C
Sleeping...
Starting execution of parboil_mriq_k1 
Temperature is currently 50 C
/gpfs/alpine/scratch/brantran/gen150/accelwattch-artifact-appendix/accel-sim-framework/gpu-simulator/../accelwattch_hw_profiler/profile_temp_power.sh: line 194: 373123 Killed                  ${!bm_name} > /dev/null
Starting profiling of parboil_mriq_k1 
Profiling concluded. Killing parboil_mriq_k1 with pid: 373181
Temperature is currently 50 C
Sleeping...
Starting execution of parboil_sad_k1 
Temperature is currently 48 C
CUDA error: all CUDA-capable devices are busy or unavailable
CUDA error: all CUDA-capable devices are busy or unavailable
CUDA error: all CUDA-capable devices are busy or unavailable
CUDA error: all CUDA-capable devices are busy or unavailable
CUDA error: all CUDA-capable devices are busy or unavailable
CUDA error: all CUDA-capable devices are busy or unavailable
CUDA error: all CUDA-capable devices are busy or unavailable
/gpfs/alpine/scratch/brantran/gen150/accelwattch-artifact-appendix/accel-sim-framework/gpu-simulator/../accelwattch_hw_profiler/profile_temp_power.sh: line 194: 373181 Killed                  ${!bm_name} > /dev/null
Starting profiling of parboil_sad_k1 
Profiling concluded. Killing parboil_sad_k1 with pid: 373202
Temperature is currently 32 C
Sleeping...
Starting execution of parboil_sgemm_k1 
Temperature is currently 32 C
/gpfs/alpine/scratch/brantran/gen150/accelwattch-artifact-appendix/accel-sim-framework/gpu-simulator/../accelwattch_hw_profiler/profile_temp_power.sh: line 194: 373202 Killed                  ${!bm_name} > /dev/null
Starting profiling of parboil_sgemm_k1 
Profiling concluded. Killing parboil_sgemm_k1 with pid: 373261
Temperature is currently 52 C
Sleeping...
Starting execution of parboil_mriq_k1 
Temperature is currently 52 C
/gpfs/alpine/scratch/brantran/gen150/accelwattch-artifact-appendix/accel-sim-framework/gpu-simulator/../accelwattch_hw_profiler/profile_temp_power.sh: line 194: 373261 Killed                  ${!bm_name} > /dev/null
Starting profiling of parboil_mriq_k1 
Profiling concluded. Killing parboil_mriq_k1 with pid: 373315
Temperature is currently 49 C
Sleeping...
Starting execution of parboil_sad_k1 
Temperature is currently 48 C
/gpfs/alpine/scratch/brantran/gen150/accelwattch-artifact-appendix/accel-sim-framework/gpu-simulator/../accelwattch_hw_profiler/profile_temp_power.sh: line 194: 373315 Killed                  ${!bm_name} > /dev/null
Starting profiling of parboil_sad_k1 
Profiling concluded. Killing parboil_sad_k1 with pid: 373370
Temperature is currently 43 C
Sleeping...
Starting execution of parboil_sgemm_k1 
Temperature is currently 42 C
/gpfs/alpine/scratch/brantran/gen150/accelwattch-artifact-appendix/accel-sim-framework/gpu-simulator/../accelwattch_hw_profiler/profile_temp_power.sh: line 194: 373370 Killed                  ${!bm_name} > /dev/null
Starting profiling of parboil_sgemm_k1 
Profiling concluded. Killing parboil_sgemm_k1 with pid: 373392
Temperature is currently 53 C
Sleeping...
