/gpfs/alpine/scratch/brantran/gen150/accelwattch-artifact-appendix
WARNING ** source setup_environment must be run in a bash, zsh or sh shell; see README
GPGPU-Sim version 4.0.0 (build gpgpu-sim_git-commit-66ae8815dd1a9cd5fcc0e08332ebca323c356863-modified_600.0) configured with AccelWattch.

----------------------------------------------------------------------------
INFO - If you only care about PTX execution, ignore this message. GPGPU-Sim supports PTX execution in modern CUDA.
If you want to run PTXPLUS (sm_1x SASS) with a modern card configuration - set the envronment variable
$PTXAS_CUDA_INSTALL_PATH to point a CUDA version compabible with your card configurations (i.e. 8+ for PASCAL, 9+ for VOLTA etc..)
For example: "export $PTXAS_CUDA_INSTALL_PATH=/usr/local/cuda-9.1"

The following text describes why:
If you are using PTXPLUS, only sm_1x is supported and it requires that the app and simulator binaries are compiled in CUDA 4.2 or less.
The simulator requires it since CUDA headers desribe struct sizes in the exec which change from gen to gen.
The apps require 4.2 because new versions of CUDA tools have dropped parsing support for generating sm_1x
When running using modern config (i.e. volta) and PTXPLUS with CUDA 4.2, the $PTXAS_CUDA_INSTALL_PATH env variable is required to get proper register usage
(and hence occupancy) using a version of CUDA that knows the register usage on the real card.

----------------------------------------------------------------------------
setup_environment succeeded
/gpfs/alpine/scratch/brantran/gen150/accelwattch-artifact-appendix/accel-sim-framework/gpu-simulator
RUNNING POWER/TEMP DUMP WITH ONLY SLEEPS
Starting execution of parboil_mriq_k1 
Temperature is currently 32 C
Starting profiling of parboil_mriq_k1 
Profiling concluded. Killing parboil_mriq_k1 with pid: 92681
Temperature is currently 50 C
Sleeping...
/gpfs/alpine/scratch/brantran/gen150/accelwattch-artifact-appendix/accel-sim-framework/gpu-simulator/../accelwattch_hw_profiler/profile_temp_power.sh: line 131: 92681 Killed                  ${!bm_name} > /dev/null
Starting execution of parboil_sad_k1 
Temperature is currently 33 C
Starting profiling of parboil_sad_k1 
Profiling concluded. Killing parboil_sad_k1 with pid: 92735
Temperature is currently 44 C
Sleeping...
/gpfs/alpine/scratch/brantran/gen150/accelwattch-artifact-appendix/accel-sim-framework/gpu-simulator/../accelwattch_hw_profiler/profile_temp_power.sh: line 131: 92735 Killed                  ${!bm_name} > /dev/null
Starting execution of parboil_sgemm_k1 
Temperature is currently 32 C
Starting profiling of parboil_sgemm_k1 
Profiling concluded. Killing parboil_sgemm_k1 with pid: 92790
Temperature is currently 55 C
Sleeping...
/gpfs/alpine/scratch/brantran/gen150/accelwattch-artifact-appendix/accel-sim-framework/gpu-simulator/../accelwattch_hw_profiler/profile_temp_power.sh: line 131: 92790 Killed                  ${!bm_name} > /dev/null
Starting execution of parboil_mriq_k1 
Temperature is currently 33 C
Starting profiling of parboil_mriq_k1 
Profiling concluded. Killing parboil_mriq_k1 with pid: 92812
Temperature is currently 52 C
Sleeping...
/gpfs/alpine/scratch/brantran/gen150/accelwattch-artifact-appendix/accel-sim-framework/gpu-simulator/../accelwattch_hw_profiler/profile_temp_power.sh: line 131: 92812 Killed                  ${!bm_name} > /dev/null
Starting execution of parboil_sad_k1 
Temperature is currently 33 C
Starting profiling of parboil_sad_k1 
Profiling concluded. Killing parboil_sad_k1 with pid: 92867
Temperature is currently 45 C
Sleeping...
/gpfs/alpine/scratch/brantran/gen150/accelwattch-artifact-appendix/accel-sim-framework/gpu-simulator/../accelwattch_hw_profiler/profile_temp_power.sh: line 131: 92867 Killed                  ${!bm_name} > /dev/null
Starting execution of parboil_sgemm_k1 
Temperature is currently 33 C
Starting profiling of parboil_sgemm_k1 
Profiling concluded. Killing parboil_sgemm_k1 with pid: 92924
Temperature is currently 55 C
Sleeping...
/gpfs/alpine/scratch/brantran/gen150/accelwattch-artifact-appendix/accel-sim-framework/gpu-simulator/../accelwattch_hw_profiler/profile_temp_power.sh: line 131: 92924 Killed                  ${!bm_name} > /dev/null
Starting execution of parboil_mriq_k1 
Temperature is currently 33 C
Starting profiling of parboil_mriq_k1 
Profiling concluded. Killing parboil_mriq_k1 with pid: 92978
Temperature is currently 52 C
Sleeping...
/gpfs/alpine/scratch/brantran/gen150/accelwattch-artifact-appendix/accel-sim-framework/gpu-simulator/../accelwattch_hw_profiler/profile_temp_power.sh: line 131: 92978 Killed                  ${!bm_name} > /dev/null
Starting execution of parboil_sad_k1 
Temperature is currently 33 C
Starting profiling of parboil_sad_k1 
Profiling concluded. Killing parboil_sad_k1 with pid: 92999
Temperature is currently 45 C
Sleeping...
/gpfs/alpine/scratch/brantran/gen150/accelwattch-artifact-appendix/accel-sim-framework/gpu-simulator/../accelwattch_hw_profiler/profile_temp_power.sh: line 131: 92999 Killed                  ${!bm_name} > /dev/null
Starting execution of parboil_sgemm_k1 
Temperature is currently 33 C
Starting profiling of parboil_sgemm_k1 
Profiling concluded. Killing parboil_sgemm_k1 with pid: 93057
Temperature is currently 55 C
Sleeping...
/gpfs/alpine/scratch/brantran/gen150/accelwattch-artifact-appendix/accel-sim-framework/gpu-simulator/../accelwattch_hw_profiler/profile_temp_power.sh: line 131: 93057 Killed                  ${!bm_name} > /dev/null
Starting execution of parboil_mriq_k1 
Temperature is currently 33 C
Starting profiling of parboil_mriq_k1 
Profiling concluded. Killing parboil_mriq_k1 with pid: 93110
Temperature is currently 51 C
Sleeping...
/gpfs/alpine/scratch/brantran/gen150/accelwattch-artifact-appendix/accel-sim-framework/gpu-simulator/../accelwattch_hw_profiler/profile_temp_power.sh: line 131: 93110 Killed                  ${!bm_name} > /dev/null
Starting execution of parboil_sad_k1 
Temperature is currently 33 C
Starting profiling of parboil_sad_k1 
Profiling concluded. Killing parboil_sad_k1 with pid: 93132
Temperature is currently 45 C
Sleeping...
/gpfs/alpine/scratch/brantran/gen150/accelwattch-artifact-appendix/accel-sim-framework/gpu-simulator/../accelwattch_hw_profiler/profile_temp_power.sh: line 131: 93132 Killed                  ${!bm_name} > /dev/null
Starting execution of parboil_sgemm_k1 
Temperature is currently 33 C
Starting profiling of parboil_sgemm_k1 
Profiling concluded. Killing parboil_sgemm_k1 with pid: 93186
Temperature is currently 53 C
Sleeping...
/gpfs/alpine/scratch/brantran/gen150/accelwattch-artifact-appendix/accel-sim-framework/gpu-simulator/../accelwattch_hw_profiler/profile_temp_power.sh: line 131: 93186 Killed                  ${!bm_name} > /dev/null
Starting execution of parboil_mriq_k1 
Temperature is currently 33 C
Starting profiling of parboil_mriq_k1 
Profiling concluded. Killing parboil_mriq_k1 with pid: 93241
Temperature is currently 52 C
Sleeping...
/gpfs/alpine/scratch/brantran/gen150/accelwattch-artifact-appendix/accel-sim-framework/gpu-simulator/../accelwattch_hw_profiler/profile_temp_power.sh: line 131: 93241 Killed                  ${!bm_name} > /dev/null
Starting execution of parboil_sad_k1 
Temperature is currently 33 C
Starting profiling of parboil_sad_k1 
Profiling concluded. Killing parboil_sad_k1 with pid: 93263
Temperature is currently 45 C
Sleeping...
/gpfs/alpine/scratch/brantran/gen150/accelwattch-artifact-appendix/accel-sim-framework/gpu-simulator/../accelwattch_hw_profiler/profile_temp_power.sh: line 131: 93263 Killed                  ${!bm_name} > /dev/null
Starting execution of parboil_sgemm_k1 
Temperature is currently 33 C
Starting profiling of parboil_sgemm_k1 
Profiling concluded. Killing parboil_sgemm_k1 with pid: 93319
Temperature is currently 55 C
Sleeping...
/gpfs/alpine/scratch/brantran/gen150/accelwattch-artifact-appendix/accel-sim-framework/gpu-simulator/../accelwattch_hw_profiler/profile_temp_power.sh: line 131: 93319 Killed                  ${!bm_name} > /dev/null



RUNNING POWER/TEMP DUMP WITH WARMUPS AND SLEEPS
Starting execution of parboil_mriq_k1 
Temperature is currently 33 C
Starting profiling of parboil_mriq_k1 
Profiling concluded. Killing parboil_mriq_k1 with pid: 93375
Temperature is currently 52 C
Sleeping...
/gpfs/alpine/scratch/brantran/gen150/accelwattch-artifact-appendix/accel-sim-framework/gpu-simulator/../accelwattch_hw_profiler/profile_temp_power.sh: line 163: 93375 Killed                  ${!bm_name} > /dev/null
Starting execution of parboil_sad_k1 
Temperature is currently 33 C
Starting profiling of parboil_sad_k1 
Profiling concluded. Killing parboil_sad_k1 with pid: 93398
Temperature is currently 45 C
Sleeping...
/gpfs/alpine/scratch/brantran/gen150/accelwattch-artifact-appendix/accel-sim-framework/gpu-simulator/../accelwattch_hw_profiler/profile_temp_power.sh: line 163: 93398 Killed                  ${!bm_name} > /dev/null
Starting execution of parboil_sgemm_k1 
Temperature is currently 33 C
Starting profiling of parboil_sgemm_k1 
Profiling concluded. Killing parboil_sgemm_k1 with pid: 93453
Temperature is currently 55 C
Sleeping...
/gpfs/alpine/scratch/brantran/gen150/accelwattch-artifact-appendix/accel-sim-framework/gpu-simulator/../accelwattch_hw_profiler/profile_temp_power.sh: line 163: 93453 Killed                  ${!bm_name} > /dev/null
Starting execution of parboil_mriq_k1 
Temperature is currently 34 C
Starting profiling of parboil_mriq_k1 
Profiling concluded. Killing parboil_mriq_k1 with pid: 93510
Temperature is currently 52 C
Sleeping...
/gpfs/alpine/scratch/brantran/gen150/accelwattch-artifact-appendix/accel-sim-framework/gpu-simulator/../accelwattch_hw_profiler/profile_temp_power.sh: line 163: 93510 Killed                  ${!bm_name} > /dev/null
Starting execution of parboil_sad_k1 
Temperature is currently 33 C
Starting profiling of parboil_sad_k1 
Profiling concluded. Killing parboil_sad_k1 with pid: 93602
Temperature is currently 45 C
Sleeping...
/gpfs/alpine/scratch/brantran/gen150/accelwattch-artifact-appendix/accel-sim-framework/gpu-simulator/../accelwattch_hw_profiler/profile_temp_power.sh: line 163: 93602 Killed                  ${!bm_name} > /dev/null
Starting execution of parboil_sgemm_k1 
Temperature is currently 33 C
Starting profiling of parboil_sgemm_k1 
Profiling concluded. Killing parboil_sgemm_k1 with pid: 93659
Temperature is currently 55 C
Sleeping...
/gpfs/alpine/scratch/brantran/gen150/accelwattch-artifact-appendix/accel-sim-framework/gpu-simulator/../accelwattch_hw_profiler/profile_temp_power.sh: line 163: 93659 Killed                  ${!bm_name} > /dev/null
Starting execution of parboil_mriq_k1 
Temperature is currently 34 C
Starting profiling of parboil_mriq_k1 
Profiling concluded. Killing parboil_mriq_k1 with pid: 93717
Temperature is currently 53 C
Sleeping...
/gpfs/alpine/scratch/brantran/gen150/accelwattch-artifact-appendix/accel-sim-framework/gpu-simulator/../accelwattch_hw_profiler/profile_temp_power.sh: line 163: 93717 Killed                  ${!bm_name} > /dev/null
Starting execution of parboil_sad_k1 
Temperature is currently 34 C
Starting profiling of parboil_sad_k1 
Profiling concluded. Killing parboil_sad_k1 with pid: 93774
Temperature is currently 44 C
Sleeping...
/gpfs/alpine/scratch/brantran/gen150/accelwattch-artifact-appendix/accel-sim-framework/gpu-simulator/../accelwattch_hw_profiler/profile_temp_power.sh: line 163: 93774 Killed                  ${!bm_name} > /dev/null
Starting execution of parboil_sgemm_k1 
Temperature is currently 33 C
Starting profiling of parboil_sgemm_k1 
Profiling concluded. Killing parboil_sgemm_k1 with pid: 93798
Temperature is currently 55 C
Sleeping...
/gpfs/alpine/scratch/brantran/gen150/accelwattch-artifact-appendix/accel-sim-framework/gpu-simulator/../accelwattch_hw_profiler/profile_temp_power.sh: line 163: 93798 Killed                  ${!bm_name} > /dev/null
Starting execution of parboil_mriq_k1 
Temperature is currently 34 C
Starting profiling of parboil_mriq_k1 
Profiling concluded. Killing parboil_mriq_k1 with pid: 93857
Temperature is currently 52 C
Sleeping...
/gpfs/alpine/scratch/brantran/gen150/accelwattch-artifact-appendix/accel-sim-framework/gpu-simulator/../accelwattch_hw_profiler/profile_temp_power.sh: line 163: 93857 Killed                  ${!bm_name} > /dev/null
Starting execution of parboil_sad_k1 
Temperature is currently 34 C
Starting profiling of parboil_sad_k1 
Profiling concluded. Killing parboil_sad_k1 with pid: 93912
Temperature is currently 44 C
Sleeping...
/gpfs/alpine/scratch/brantran/gen150/accelwattch-artifact-appendix/accel-sim-framework/gpu-simulator/../accelwattch_hw_profiler/profile_temp_power.sh: line 163: 93912 Killed                  ${!bm_name} > /dev/null
Starting execution of parboil_sgemm_k1 
Temperature is currently 33 C
Starting profiling of parboil_sgemm_k1 
Profiling concluded. Killing parboil_sgemm_k1 with pid: 93968
Temperature is currently 55 C
Sleeping...
/gpfs/alpine/scratch/brantran/gen150/accelwattch-artifact-appendix/accel-sim-framework/gpu-simulator/../accelwattch_hw_profiler/profile_temp_power.sh: line 163: 93968 Killed                  ${!bm_name} > /dev/null
Starting execution of parboil_mriq_k1 
Temperature is currently 34 C
Starting profiling of parboil_mriq_k1 
Profiling concluded. Killing parboil_mriq_k1 with pid: 94026
Temperature is currently 52 C
Sleeping...
/gpfs/alpine/scratch/brantran/gen150/accelwattch-artifact-appendix/accel-sim-framework/gpu-simulator/../accelwattch_hw_profiler/profile_temp_power.sh: line 163: 94026 Killed                  ${!bm_name} > /dev/null
Starting execution of parboil_sad_k1 
Temperature is currently 33 C
Starting profiling of parboil_sad_k1 
Profiling concluded. Killing parboil_sad_k1 with pid: 94084
Temperature is currently 45 C
Sleeping...
/gpfs/alpine/scratch/brantran/gen150/accelwattch-artifact-appendix/accel-sim-framework/gpu-simulator/../accelwattch_hw_profiler/profile_temp_power.sh: line 163: 94084 Killed                  ${!bm_name} > /dev/null
Starting execution of parboil_sgemm_k1 
Temperature is currently 33 C
Starting profiling of parboil_sgemm_k1 
Profiling concluded. Killing parboil_sgemm_k1 with pid: 94141
Temperature is currently 55 C
Sleeping...
/gpfs/alpine/scratch/brantran/gen150/accelwattch-artifact-appendix/accel-sim-framework/gpu-simulator/../accelwattch_hw_profiler/profile_temp_power.sh: line 163: 94141 Killed                  ${!bm_name} > /dev/null



RUNNING POWER/TEMP DUMP WITH WARMUP NO SLEEP
Starting execution of parboil_mriq_k1 
Temperature is currently 33 C
Starting profiling of parboil_mriq_k1 
Profiling concluded. Killing parboil_mriq_k1 with pid: 94198
Temperature is currently 52 C
Sleeping...
Starting execution of parboil_sad_k1 
Temperature is currently 52 C
/gpfs/alpine/scratch/brantran/gen150/accelwattch-artifact-appendix/accel-sim-framework/gpu-simulator/../accelwattch_hw_profiler/profile_temp_power.sh: line 194: 94198 Killed                  ${!bm_name} > /dev/null
Starting profiling of parboil_sad_k1 
Profiling concluded. Killing parboil_sad_k1 with pid: 94217
Temperature is currently 45 C
Sleeping...
Starting execution of parboil_sgemm_k1 
Temperature is currently 45 C
/gpfs/alpine/scratch/brantran/gen150/accelwattch-artifact-appendix/accel-sim-framework/gpu-simulator/../accelwattch_hw_profiler/profile_temp_power.sh: line 194: 94217 Killed                  ${!bm_name} > /dev/null
Starting profiling of parboil_sgemm_k1 
Profiling concluded. Killing parboil_sgemm_k1 with pid: 94272
Temperature is currently 56 C
Sleeping...
Starting execution of parboil_mriq_k1 
Temperature is currently 54 C
/gpfs/alpine/scratch/brantran/gen150/accelwattch-artifact-appendix/accel-sim-framework/gpu-simulator/../accelwattch_hw_profiler/profile_temp_power.sh: line 194: 94272 Killed                  ${!bm_name} > /dev/null
Starting profiling of parboil_mriq_k1 
Profiling concluded. Killing parboil_mriq_k1 with pid: 94325
Temperature is currently 53 C
Sleeping...
Starting execution of parboil_sad_k1 
Temperature is currently 52 C
/gpfs/alpine/scratch/brantran/gen150/accelwattch-artifact-appendix/accel-sim-framework/gpu-simulator/../accelwattch_hw_profiler/profile_temp_power.sh: line 194: 94325 Killed                  ${!bm_name} > /dev/null
Starting profiling of parboil_sad_k1 
Profiling concluded. Killing parboil_sad_k1 with pid: 94346
Temperature is currently 46 C
Sleeping...
Starting execution of parboil_sgemm_k1 
Temperature is currently 44 C
/gpfs/alpine/scratch/brantran/gen150/accelwattch-artifact-appendix/accel-sim-framework/gpu-simulator/../accelwattch_hw_profiler/profile_temp_power.sh: line 194: 94346 Killed                  ${!bm_name} > /dev/null
Starting profiling of parboil_sgemm_k1 
Profiling concluded. Killing parboil_sgemm_k1 with pid: 94412
Temperature is currently 55 C
Sleeping...
Starting execution of parboil_mriq_k1 
Temperature is currently 53 C
/gpfs/alpine/scratch/brantran/gen150/accelwattch-artifact-appendix/accel-sim-framework/gpu-simulator/../accelwattch_hw_profiler/profile_temp_power.sh: line 194: 94412 Killed                  ${!bm_name} > /dev/null
Starting profiling of parboil_mriq_k1 
Profiling concluded. Killing parboil_mriq_k1 with pid: 94466
Temperature is currently 53 C
Sleeping...
Starting execution of parboil_sad_k1 
Temperature is currently 51 C
/gpfs/alpine/scratch/brantran/gen150/accelwattch-artifact-appendix/accel-sim-framework/gpu-simulator/../accelwattch_hw_profiler/profile_temp_power.sh: line 194: 94466 Killed                  ${!bm_name} > /dev/null
Starting profiling of parboil_sad_k1 
Profiling concluded. Killing parboil_sad_k1 with pid: 94487
Temperature is currently 45 C
Sleeping...
Starting execution of parboil_sgemm_k1 
Temperature is currently 44 C
/gpfs/alpine/scratch/brantran/gen150/accelwattch-artifact-appendix/accel-sim-framework/gpu-simulator/../accelwattch_hw_profiler/profile_temp_power.sh: line 194: 94487 Killed                  ${!bm_name} > /dev/null
Starting profiling of parboil_sgemm_k1 
Profiling concluded. Killing parboil_sgemm_k1 with pid: 94544
Temperature is currently 55 C
Sleeping...
Starting execution of parboil_mriq_k1 
Temperature is currently 53 C
/gpfs/alpine/scratch/brantran/gen150/accelwattch-artifact-appendix/accel-sim-framework/gpu-simulator/../accelwattch_hw_profiler/profile_temp_power.sh: line 194: 94544 Killed                  ${!bm_name} > /dev/null
Starting profiling of parboil_mriq_k1 
Profiling concluded. Killing parboil_mriq_k1 with pid: 94601
Temperature is currently 53 C
Sleeping...
Starting execution of parboil_sad_k1 
Temperature is currently 51 C
/gpfs/alpine/scratch/brantran/gen150/accelwattch-artifact-appendix/accel-sim-framework/gpu-simulator/../accelwattch_hw_profiler/profile_temp_power.sh: line 194: 94601 Killed                  ${!bm_name} > /dev/null
Starting profiling of parboil_sad_k1 
Profiling concluded. Killing parboil_sad_k1 with pid: 94623
Temperature is currently 46 C
Sleeping...
Starting execution of parboil_sgemm_k1 
Temperature is currently 44 C
/gpfs/alpine/scratch/brantran/gen150/accelwattch-artifact-appendix/accel-sim-framework/gpu-simulator/../accelwattch_hw_profiler/profile_temp_power.sh: line 194: 94623 Killed                  ${!bm_name} > /dev/null
Starting profiling of parboil_sgemm_k1 
Profiling concluded. Killing parboil_sgemm_k1 with pid: 94678
Temperature is currently 56 C
Sleeping...
Starting execution of parboil_mriq_k1 
Temperature is currently 54 C
/gpfs/alpine/scratch/brantran/gen150/accelwattch-artifact-appendix/accel-sim-framework/gpu-simulator/../accelwattch_hw_profiler/profile_temp_power.sh: line 194: 94678 Killed                  ${!bm_name} > /dev/null
Starting profiling of parboil_mriq_k1 
Profiling concluded. Killing parboil_mriq_k1 with pid: 94733
Temperature is currently 53 C
Sleeping...
Starting execution of parboil_sad_k1 
Temperature is currently 51 C
/gpfs/alpine/scratch/brantran/gen150/accelwattch-artifact-appendix/accel-sim-framework/gpu-simulator/../accelwattch_hw_profiler/profile_temp_power.sh: line 194: 94733 Killed                  ${!bm_name} > /dev/null
Starting profiling of parboil_sad_k1 
Profiling concluded. Killing parboil_sad_k1 with pid: 94754
Temperature is currently 45 C
Sleeping...
Starting execution of parboil_sgemm_k1 
Temperature is currently 45 C
/gpfs/alpine/scratch/brantran/gen150/accelwattch-artifact-appendix/accel-sim-framework/gpu-simulator/../accelwattch_hw_profiler/profile_temp_power.sh: line 194: 94754 Killed                  ${!bm_name} > /dev/null
Starting profiling of parboil_sgemm_k1 
Profiling concluded. Killing parboil_sgemm_k1 with pid: 94806
Temperature is currently 54 C
Sleeping...
