####START INFO####
Host information: Node

g13n09
####END   INFO####
/gpfs/alpine/scratch/brantran/gen150/accelwattch-artifact-appendix
WARNING ** source setup_environment must be run in a bash, zsh or sh shell; see README
GPGPU-Sim version 4.0.0 (build gpgpu-sim_git-commit-66ae8815dd1a9cd5fcc0e08332ebca323c356863-modified_600.0) configured with AccelWattch.

----------------------------------------------------------------------------
INFO - If you only care about PTX execution, ignore this message. GPGPU-Sim supports PTX execution in modern CUDA.
If you want to run PTXPLUS (sm_1x SASS) with a modern card configuration - set the envronment variable
$PTXAS_CUDA_INSTALL_PATH to point a CUDA version compabible with your card configurations (i.e. 8+ for PASCAL, 9+ for VOLTA etc..)
For example: "export $PTXAS_CUDA_INSTALL_PATH=/usr/local/cuda-9.1"

The following text describes why:
If you are using PTXPLUS, only sm_1x is supported and it requires that the app and simulator binaries are compiled in CUDA 4.2 or less.
The simulator requires it since CUDA headers desribe struct sizes in the exec which change from gen to gen.
The apps require 4.2 because new versions of CUDA tools have dropped parsing support for generating sm_1x
When running using modern config (i.e. volta) and PTXPLUS with CUDA 4.2, the $PTXAS_CUDA_INSTALL_PATH env variable is required to get proper register usage
(and hence occupancy) using a version of CUDA that knows the register usage on the real card.

----------------------------------------------------------------------------
setup_environment succeeded
/gpfs/alpine/scratch/brantran/gen150/accelwattch-artifact-appendix/accel-sim-framework/gpu-simulator
0 GPU-97ab71da-3e20-47e9-5415-db68ef476ef0
[[histogram]] - Starting...
------------- NVBit (NVidia Binary Instrumentation Tool v1.5) Loaded --------------
NVBit core environment variables (mostly for nvbit-devs):
            NVDISASM = nvdisasm - override default nvdisasm found in PATH
            NOBANNER = 0 - if set, does not print this banner
---------------------------------------------------------------------------------
         INSTR_BEGIN = 0 - Beginning of the instruction interval where to apply instrumentation
           INSTR_END = 4294967295 - End of the instruction interval where to apply instrumentation
    EXCLUDE_PRED_OFF = 1 - Exclude predicated off instruction from count
DYNAMIC_KERNEL_LIMIT_END = 0 - Limit of the number kernel to be printed, 0 means no limit
DYNAMIC_KERNEL_LIMIT_START = 0 - start to report kernel from this kernel id, 0 means starts from the begging, i.e. first kernel
        TOOL_VERBOSE = 0 - Enable verbosity inside the tool
       TOOL_COMPRESS = 1 - Enable traces compression
     TOOL_TRACE_CORE = 0 - write the core id in the traces
----------------------------------------------------------------------------------------------------
CUDA device [Tesla V100-SXM2-16GB] has 80 Multi-Processors, Compute 7.0
Initializing data...
...allocating CPU memory.
...generating input data
...allocating GPU memory and copying input data

Starting up 64-bin histogram...

Running 64-bin GPU histogram for 67108864 bytes (16 runs)...

Writing results to ./traces/kernel-1.trace
Writing results to ./traces/kernel-2.trace
Writing results to ./traces/kernel-3.trace
Writing results to ./traces/kernel-4.trace
Writing results to ./traces/kernel-5.trace
Writing results to ./traces/kernel-6.trace
Writing results to ./traces/kernel-7.trace
Writing results to ./traces/kernel-8.trace
Writing results to ./traces/kernel-9.trace
Writing results to ./traces/kernel-10.trace
Writing results to ./traces/kernel-11.trace
Writing results to ./traces/kernel-12.trace
Writing results to ./traces/kernel-13.trace
Writing results to ./traces/kernel-14.trace
Writing results to ./traces/kernel-15.trace
Writing results to ./traces/kernel-16.trace
Writing results to ./traces/kernel-17.trace
Writing results to ./traces/kernel-18.trace
Writing results to ./traces/kernel-19.trace
Writing results to ./traces/kernel-20.trace
Writing results to ./traces/kernel-21.trace
Writing results to ./traces/kernel-22.trace
Writing results to ./traces/kernel-23.trace
Writing results to ./traces/kernel-24.trace
Writing results to ./traces/kernel-25.trace
Writing results to ./traces/kernel-26.trace
Writing results to ./traces/kernel-27.trace
Writing results to ./traces/kernel-28.trace
Writing results to ./traces/kernel-29.trace
Writing results to ./traces/kernel-30.trace
Writing results to ./traces/kernel-31.trace
Writing results to ./traces/kernel-32.trace
Writing results to ./traces/kernel-33.trace
Writing results to ./traces/kernel-34.trace
histogram64() time (average) : 47.46180 sec, 1.4140 MB/sec

histogram64, Throughput = 1.4140 MB/s, Time = 47.46180 s, Size = 67108864 Bytes, NumDevsUsed = 1, Workgroup = 64

Validating GPU results...
 ...reading back GPU results
 ...histogram64CPU()
 ...comparing the results...
 ...64-bin histograms match

Shutting down 64-bin histogram...


Initializing 256-bin histogram...
Running 256-bin GPU histogram for 67108864 bytes (16 runs)...

Writing results to ./traces/kernel-35.trace
Writing results to ./traces/kernel-36.trace
Writing results to ./traces/kernel-37.trace
Writing results to ./traces/kernel-38.trace
Writing results to ./traces/kernel-39.trace
Writing results to ./traces/kernel-40.trace
Writing results to ./traces/kernel-41.trace
Writing results to ./traces/kernel-42.trace
Writing results to ./traces/kernel-43.trace
Writing results to ./traces/kernel-44.trace
Writing results to ./traces/kernel-45.trace
Writing results to ./traces/kernel-46.trace
Writing results to ./traces/kernel-47.trace
Writing results to ./traces/kernel-48.trace
Writing results to ./traces/kernel-49.trace
Writing results to ./traces/kernel-50.trace
Writing results to ./traces/kernel-51.trace
Writing results to ./traces/kernel-52.trace
Writing results to ./traces/kernel-53.trace
Writing results to ./traces/kernel-54.trace
Writing results to ./traces/kernel-55.trace
Writing results to ./traces/kernel-56.trace
Writing results to ./traces/kernel-57.trace
Writing results to ./traces/kernel-58.trace
Writing results to ./traces/kernel-59.trace
Writing results to ./traces/kernel-60.trace
Writing results to ./traces/kernel-61.trace
Writing results to ./traces/kernel-62.trace
Writing results to ./traces/kernel-63.trace
Writing results to ./traces/kernel-64.trace
Writing results to ./traces/kernel-65.trace
Writing results to ./traces/kernel-66.trace
Writing results to ./traces/kernel-67.trace
Writing results to ./traces/kernel-68.trace
histogram256() time (average) : 28.83587 sec, 2.3273 MB/sec

histogram256, Throughput = 2.3273 MB/s, Time = 28.83587 s, Size = 67108864 Bytes, NumDevsUsed = 1, Workgroup = 192

Validating GPU results...
 ...reading back GPU results
 ...histogram256CPU()
 ...comparing the results
 ...256-bin histograms match

Shutting down 256-bin histogram...


Shutting down...

NOTE: The CUDA Samples are not meant for performance measurements. Results may vary when GPU Boost is enabled.

[histogram] - Test Summary
Test passed
Processing file /gpfs/alpine/gen150/scratch/brantran/accelwattch-artifact-appendix/accel-sim-framework/hw_run/traces/device-0/11.0/histogram/NO_ARGS/traces/kernel-1.trace
Processing file /gpfs/alpine/gen150/scratch/brantran/accelwattch-artifact-appendix/accel-sim-framework/hw_run/traces/device-0/11.0/histogram/NO_ARGS/traces/kernel-2.trace
Processing file /gpfs/alpine/gen150/scratch/brantran/accelwattch-artifact-appendix/accel-sim-framework/hw_run/traces/device-0/11.0/histogram/NO_ARGS/traces/kernel-3.trace
Processing file /gpfs/alpine/gen150/scratch/brantran/accelwattch-artifact-appendix/accel-sim-framework/hw_run/traces/device-0/11.0/histogram/NO_ARGS/traces/kernel-4.trace
Processing file /gpfs/alpine/gen150/scratch/brantran/accelwattch-artifact-appendix/accel-sim-framework/hw_run/traces/device-0/11.0/histogram/NO_ARGS/traces/kernel-5.trace
Processing file /gpfs/alpine/gen150/scratch/brantran/accelwattch-artifact-appendix/accel-sim-framework/hw_run/traces/device-0/11.0/histogram/NO_ARGS/traces/kernel-6.trace
Processing file /gpfs/alpine/gen150/scratch/brantran/accelwattch-artifact-appendix/accel-sim-framework/hw_run/traces/device-0/11.0/histogram/NO_ARGS/traces/kernel-7.trace
Processing file /gpfs/alpine/gen150/scratch/brantran/accelwattch-artifact-appendix/accel-sim-framework/hw_run/traces/device-0/11.0/histogram/NO_ARGS/traces/kernel-8.trace
Processing file /gpfs/alpine/gen150/scratch/brantran/accelwattch-artifact-appendix/accel-sim-framework/hw_run/traces/device-0/11.0/histogram/NO_ARGS/traces/kernel-9.trace
Processing file /gpfs/alpine/gen150/scratch/brantran/accelwattch-artifact-appendix/accel-sim-framework/hw_run/traces/device-0/11.0/histogram/NO_ARGS/traces/kernel-10.trace
Processing file /gpfs/alpine/gen150/scratch/brantran/accelwattch-artifact-appendix/accel-sim-framework/hw_run/traces/device-0/11.0/histogram/NO_ARGS/traces/kernel-11.trace
Processing file /gpfs/alpine/gen150/scratch/brantran/accelwattch-artifact-appendix/accel-sim-framework/hw_run/traces/device-0/11.0/histogram/NO_ARGS/traces/kernel-12.trace
Processing file /gpfs/alpine/gen150/scratch/brantran/accelwattch-artifact-appendix/accel-sim-framework/hw_run/traces/device-0/11.0/histogram/NO_ARGS/traces/kernel-13.trace
Processing file /gpfs/alpine/gen150/scratch/brantran/accelwattch-artifact-appendix/accel-sim-framework/hw_run/traces/device-0/11.0/histogram/NO_ARGS/traces/kernel-14.trace
Processing file /gpfs/alpine/gen150/scratch/brantran/accelwattch-artifact-appendix/accel-sim-framework/hw_run/traces/device-0/11.0/histogram/NO_ARGS/traces/kernel-15.trace
Processing file /gpfs/alpine/gen150/scratch/brantran/accelwattch-artifact-appendix/accel-sim-framework/hw_run/traces/device-0/11.0/histogram/NO_ARGS/traces/kernel-16.trace
Processing file /gpfs/alpine/gen150/scratch/brantran/accelwattch-artifact-appendix/accel-sim-framework/hw_run/traces/device-0/11.0/histogram/NO_ARGS/traces/kernel-17.trace
Processing file /gpfs/alpine/gen150/scratch/brantran/accelwattch-artifact-appendix/accel-sim-framework/hw_run/traces/device-0/11.0/histogram/NO_ARGS/traces/kernel-18.trace
Processing file /gpfs/alpine/gen150/scratch/brantran/accelwattch-artifact-appendix/accel-sim-framework/hw_run/traces/device-0/11.0/histogram/NO_ARGS/traces/kernel-19.trace
Processing file /gpfs/alpine/gen150/scratch/brantran/accelwattch-artifact-appendix/accel-sim-framework/hw_run/traces/device-0/11.0/histogram/NO_ARGS/traces/kernel-20.trace
Processing file /gpfs/alpine/gen150/scratch/brantran/accelwattch-artifact-appendix/accel-sim-framework/hw_run/traces/device-0/11.0/histogram/NO_ARGS/traces/kernel-21.trace
Processing file /gpfs/alpine/gen150/scratch/brantran/accelwattch-artifact-appendix/accel-sim-framework/hw_run/traces/device-0/11.0/histogram/NO_ARGS/traces/kernel-22.trace
Processing file /gpfs/alpine/gen150/scratch/brantran/accelwattch-artifact-appendix/accel-sim-framework/hw_run/traces/device-0/11.0/histogram/NO_ARGS/traces/kernel-23.trace
Processing file /gpfs/alpine/gen150/scratch/brantran/accelwattch-artifact-appendix/accel-sim-framework/hw_run/traces/device-0/11.0/histogram/NO_ARGS/traces/kernel-24.trace
Processing file /gpfs/alpine/gen150/scratch/brantran/accelwattch-artifact-appendix/accel-sim-framework/hw_run/traces/device-0/11.0/histogram/NO_ARGS/traces/kernel-25.trace
Processing file /gpfs/alpine/gen150/scratch/brantran/accelwattch-artifact-appendix/accel-sim-framework/hw_run/traces/device-0/11.0/histogram/NO_ARGS/traces/kernel-26.trace
Processing file /gpfs/alpine/gen150/scratch/brantran/accelwattch-artifact-appendix/accel-sim-framework/hw_run/traces/device-0/11.0/histogram/NO_ARGS/traces/kernel-27.trace
Processing file /gpfs/alpine/gen150/scratch/brantran/accelwattch-artifact-appendix/accel-sim-framework/hw_run/traces/device-0/11.0/histogram/NO_ARGS/traces/kernel-28.trace
Processing file /gpfs/alpine/gen150/scratch/brantran/accelwattch-artifact-appendix/accel-sim-framework/hw_run/traces/device-0/11.0/histogram/NO_ARGS/traces/kernel-29.trace
Processing file /gpfs/alpine/gen150/scratch/brantran/accelwattch-artifact-appendix/accel-sim-framework/hw_run/traces/device-0/11.0/histogram/NO_ARGS/traces/kernel-30.trace
Processing file /gpfs/alpine/gen150/scratch/brantran/accelwattch-artifact-appendix/accel-sim-framework/hw_run/traces/device-0/11.0/histogram/NO_ARGS/traces/kernel-31.trace
Processing file /gpfs/alpine/gen150/scratch/brantran/accelwattch-artifact-appendix/accel-sim-framework/hw_run/traces/device-0/11.0/histogram/NO_ARGS/traces/kernel-32.trace
Processing file /gpfs/alpine/gen150/scratch/brantran/accelwattch-artifact-appendix/accel-sim-framework/hw_run/traces/device-0/11.0/histogram/NO_ARGS/traces/kernel-33.trace
Processing file /gpfs/alpine/gen150/scratch/brantran/accelwattch-artifact-appendix/accel-sim-framework/hw_run/traces/device-0/11.0/histogram/NO_ARGS/traces/kernel-34.trace
Processing file /gpfs/alpine/gen150/scratch/brantran/accelwattch-artifact-appendix/accel-sim-framework/hw_run/traces/device-0/11.0/histogram/NO_ARGS/traces/kernel-35.trace
Processing file /gpfs/alpine/gen150/scratch/brantran/accelwattch-artifact-appendix/accel-sim-framework/hw_run/traces/device-0/11.0/histogram/NO_ARGS/traces/kernel-36.trace
Processing file /gpfs/alpine/gen150/scratch/brantran/accelwattch-artifact-appendix/accel-sim-framework/hw_run/traces/device-0/11.0/histogram/NO_ARGS/traces/kernel-37.trace
Processing file /gpfs/alpine/gen150/scratch/brantran/accelwattch-artifact-appendix/accel-sim-framework/hw_run/traces/device-0/11.0/histogram/NO_ARGS/traces/kernel-38.trace
Processing file /gpfs/alpine/gen150/scratch/brantran/accelwattch-artifact-appendix/accel-sim-framework/hw_run/traces/device-0/11.0/histogram/NO_ARGS/traces/kernel-39.trace
Processing file /gpfs/alpine/gen150/scratch/brantran/accelwattch-artifact-appendix/accel-sim-framework/hw_run/traces/device-0/11.0/histogram/NO_ARGS/traces/kernel-40.trace
Processing file /gpfs/alpine/gen150/scratch/brantran/accelwattch-artifact-appendix/accel-sim-framework/hw_run/traces/device-0/11.0/histogram/NO_ARGS/traces/kernel-41.trace
Processing file /gpfs/alpine/gen150/scratch/brantran/accelwattch-artifact-appendix/accel-sim-framework/hw_run/traces/device-0/11.0/histogram/NO_ARGS/traces/kernel-42.trace
Processing file /gpfs/alpine/gen150/scratch/brantran/accelwattch-artifact-appendix/accel-sim-framework/hw_run/traces/device-0/11.0/histogram/NO_ARGS/traces/kernel-43.trace
Processing file /gpfs/alpine/gen150/scratch/brantran/accelwattch-artifact-appendix/accel-sim-framework/hw_run/traces/device-0/11.0/histogram/NO_ARGS/traces/kernel-44.trace
Processing file /gpfs/alpine/gen150/scratch/brantran/accelwattch-artifact-appendix/accel-sim-framework/hw_run/traces/device-0/11.0/histogram/NO_ARGS/traces/kernel-45.trace
Processing file /gpfs/alpine/gen150/scratch/brantran/accelwattch-artifact-appendix/accel-sim-framework/hw_run/traces/device-0/11.0/histogram/NO_ARGS/traces/kernel-46.trace
Processing file /gpfs/alpine/gen150/scratch/brantran/accelwattch-artifact-appendix/accel-sim-framework/hw_run/traces/device-0/11.0/histogram/NO_ARGS/traces/kernel-47.trace
Processing file /gpfs/alpine/gen150/scratch/brantran/accelwattch-artifact-appendix/accel-sim-framework/hw_run/traces/device-0/11.0/histogram/NO_ARGS/traces/kernel-48.trace
Processing file /gpfs/alpine/gen150/scratch/brantran/accelwattch-artifact-appendix/accel-sim-framework/hw_run/traces/device-0/11.0/histogram/NO_ARGS/traces/kernel-49.trace
Processing file /gpfs/alpine/gen150/scratch/brantran/accelwattch-artifact-appendix/accel-sim-framework/hw_run/traces/device-0/11.0/histogram/NO_ARGS/traces/kernel-50.trace
Processing file /gpfs/alpine/gen150/scratch/brantran/accelwattch-artifact-appendix/accel-sim-framework/hw_run/traces/device-0/11.0/histogram/NO_ARGS/traces/kernel-51.trace
Processing file /gpfs/alpine/gen150/scratch/brantran/accelwattch-artifact-appendix/accel-sim-framework/hw_run/traces/device-0/11.0/histogram/NO_ARGS/traces/kernel-52.trace
Processing file /gpfs/alpine/gen150/scratch/brantran/accelwattch-artifact-appendix/accel-sim-framework/hw_run/traces/device-0/11.0/histogram/NO_ARGS/traces/kernel-53.trace
Processing file /gpfs/alpine/gen150/scratch/brantran/accelwattch-artifact-appendix/accel-sim-framework/hw_run/traces/device-0/11.0/histogram/NO_ARGS/traces/kernel-54.trace
Processing file /gpfs/alpine/gen150/scratch/brantran/accelwattch-artifact-appendix/accel-sim-framework/hw_run/traces/device-0/11.0/histogram/NO_ARGS/traces/kernel-55.trace
Processing file /gpfs/alpine/gen150/scratch/brantran/accelwattch-artifact-appendix/accel-sim-framework/hw_run/traces/device-0/11.0/histogram/NO_ARGS/traces/kernel-56.trace
Processing file /gpfs/alpine/gen150/scratch/brantran/accelwattch-artifact-appendix/accel-sim-framework/hw_run/traces/device-0/11.0/histogram/NO_ARGS/traces/kernel-57.trace
Processing file /gpfs/alpine/gen150/scratch/brantran/accelwattch-artifact-appendix/accel-sim-framework/hw_run/traces/device-0/11.0/histogram/NO_ARGS/traces/kernel-58.trace
Processing file /gpfs/alpine/gen150/scratch/brantran/accelwattch-artifact-appendix/accel-sim-framework/hw_run/traces/device-0/11.0/histogram/NO_ARGS/traces/kernel-59.trace
Processing file /gpfs/alpine/gen150/scratch/brantran/accelwattch-artifact-appendix/accel-sim-framework/hw_run/traces/device-0/11.0/histogram/NO_ARGS/traces/kernel-60.trace
Processing file /gpfs/alpine/gen150/scratch/brantran/accelwattch-artifact-appendix/accel-sim-framework/hw_run/traces/device-0/11.0/histogram/NO_ARGS/traces/kernel-61.trace
Processing file /gpfs/alpine/gen150/scratch/brantran/accelwattch-artifact-appendix/accel-sim-framework/hw_run/traces/device-0/11.0/histogram/NO_ARGS/traces/kernel-62.trace
Processing file /gpfs/alpine/gen150/scratch/brantran/accelwattch-artifact-appendix/accel-sim-framework/hw_run/traces/device-0/11.0/histogram/NO_ARGS/traces/kernel-63.trace
Processing file /gpfs/alpine/gen150/scratch/brantran/accelwattch-artifact-appendix/accel-sim-framework/hw_run/traces/device-0/11.0/histogram/NO_ARGS/traces/kernel-64.trace
Processing file /gpfs/alpine/gen150/scratch/brantran/accelwattch-artifact-appendix/accel-sim-framework/hw_run/traces/device-0/11.0/histogram/NO_ARGS/traces/kernel-65.trace
Processing file /gpfs/alpine/gen150/scratch/brantran/accelwattch-artifact-appendix/accel-sim-framework/hw_run/traces/device-0/11.0/histogram/NO_ARGS/traces/kernel-66.trace
Processing file /gpfs/alpine/gen150/scratch/brantran/accelwattch-artifact-appendix/accel-sim-framework/hw_run/traces/device-0/11.0/histogram/NO_ARGS/traces/kernel-67.trace
Processing file /gpfs/alpine/gen150/scratch/brantran/accelwattch-artifact-appendix/accel-sim-framework/hw_run/traces/device-0/11.0/histogram/NO_ARGS/traces/kernel-68.trace
/gpfs/alpine/scratch/brantran/gen150/accelwattch-artifact-appendix/accel-sim-framework/gpu-simulator/../util/accelwattch/accelwattch_benchmarks/validation/mergeSort Starting...

Allocating and initializing host arrays...

Allocating and initializing CUDA arrays...

------------- NVBit (NVidia Binary Instrumentation Tool v1.5) Loaded --------------
NVBit core environment variables (mostly for nvbit-devs):
            NVDISASM = nvdisasm - override default nvdisasm found in PATH
            NOBANNER = 0 - if set, does not print this banner
---------------------------------------------------------------------------------
         INSTR_BEGIN = 0 - Beginning of the instruction interval where to apply instrumentation
           INSTR_END = 4294967295 - End of the instruction interval where to apply instrumentation
    EXCLUDE_PRED_OFF = 1 - Exclude predicated off instruction from count
DYNAMIC_KERNEL_LIMIT_END = 0 - Limit of the number kernel to be printed, 0 means no limit
DYNAMIC_KERNEL_LIMIT_START = 0 - start to report kernel from this kernel id, 0 means starts from the begging, i.e. first kernel
        TOOL_VERBOSE = 0 - Enable verbosity inside the tool
       TOOL_COMPRESS = 1 - Enable traces compression
     TOOL_TRACE_CORE = 0 - write the core id in the traces
----------------------------------------------------------------------------------------------------
Initializing GPU merge sort...
Running GPU merge sort...
Writing results to ./traces/kernel-1.trace
Writing results to ./traces/kernel-2.trace
Writing results to ./traces/kernel-3.trace
Writing results to ./traces/kernel-4.trace
Writing results to ./traces/kernel-5.trace
Writing results to ./traces/kernel-6.trace
Writing results to ./traces/kernel-7.trace
Writing results to ./traces/kernel-8.trace
Writing results to ./traces/kernel-9.trace
Writing results to ./traces/kernel-10.trace
Writing results to ./traces/kernel-11.trace
Writing results to ./traces/kernel-12.trace
Writing results to ./traces/kernel-13.trace
Writing results to ./traces/kernel-14.trace
Writing results to ./traces/kernel-15.trace
Writing results to ./traces/kernel-16.trace
Writing results to ./traces/kernel-17.trace
Writing results to ./traces/kernel-18.trace
Writing results to ./traces/kernel-19.trace
Writing results to ./traces/kernel-20.trace
Writing results to ./traces/kernel-21.trace
Writing results to ./traces/kernel-22.trace
Writing results to ./traces/kernel-23.trace
Writing results to ./traces/kernel-24.trace
Writing results to ./traces/kernel-25.trace
Writing results to ./traces/kernel-26.trace
Writing results to ./traces/kernel-27.trace
Writing results to ./traces/kernel-28.trace
Writing results to ./traces/kernel-29.trace
Writing results to ./traces/kernel-30.trace
Writing results to ./traces/kernel-31.trace
Writing results to ./traces/kernel-32.trace
Writing results to ./traces/kernel-33.trace
Writing results to ./traces/kernel-34.trace
Writing results to ./traces/kernel-35.trace
Writing results to ./traces/kernel-36.trace
Writing results to ./traces/kernel-37.trace
Writing results to ./traces/kernel-38.trace
Writing results to ./traces/kernel-39.trace
Writing results to ./traces/kernel-40.trace
Writing results to ./traces/kernel-41.trace
Writing results to ./traces/kernel-42.trace
Writing results to ./traces/kernel-43.trace
Writing results to ./traces/kernel-44.trace
Writing results to ./traces/kernel-45.trace
Writing results to ./traces/kernel-46.trace
Writing results to ./traces/kernel-47.trace
Writing results to ./traces/kernel-48.trace
Writing results to ./traces/kernel-49.trace
Time: 706992.250000 ms
Reading back GPU merge sort results...
Inspecting the results...
...inspecting keys array: OK
...inspecting keys and values array: OK
...stability property: stable!
Shutting down...
run.sh: line 2: 1016022 Segmentation fault      (core dumped) CUDA_INJECTION64_PATH=/gpfs/alpine/gen150/scratch/brantran/accelwattch-artifact-appendix/accel-sim-framework/util/tracer_nvbit/tracer_tool/tracer_tool.so /gpfs/alpine/scratch/brantran/gen150/accelwattch-artifact-appendix/accel-sim-framework/gpu-simulator/../util/accelwattch/accelwattch_benchmarks/validation/mergeSort
Processing file /gpfs/alpine/gen150/scratch/brantran/accelwattch-artifact-appendix/accel-sim-framework/hw_run/traces/device-0/11.0/mergeSort/NO_ARGS/traces/kernel-1.trace
Processing file /gpfs/alpine/gen150/scratch/brantran/accelwattch-artifact-appendix/accel-sim-framework/hw_run/traces/device-0/11.0/mergeSort/NO_ARGS/traces/kernel-2.trace
Processing file /gpfs/alpine/gen150/scratch/brantran/accelwattch-artifact-appendix/accel-sim-framework/hw_run/traces/device-0/11.0/mergeSort/NO_ARGS/traces/kernel-3.trace
Processing file /gpfs/alpine/gen150/scratch/brantran/accelwattch-artifact-appendix/accel-sim-framework/hw_run/traces/device-0/11.0/mergeSort/NO_ARGS/traces/kernel-4.trace
Processing file /gpfs/alpine/gen150/scratch/brantran/accelwattch-artifact-appendix/accel-sim-framework/hw_run/traces/device-0/11.0/mergeSort/NO_ARGS/traces/kernel-5.trace
Processing file /gpfs/alpine/gen150/scratch/brantran/accelwattch-artifact-appendix/accel-sim-framework/hw_run/traces/device-0/11.0/mergeSort/NO_ARGS/traces/kernel-6.trace
Processing file /gpfs/alpine/gen150/scratch/brantran/accelwattch-artifact-appendix/accel-sim-framework/hw_run/traces/device-0/11.0/mergeSort/NO_ARGS/traces/kernel-7.trace
Processing file /gpfs/alpine/gen150/scratch/brantran/accelwattch-artifact-appendix/accel-sim-framework/hw_run/traces/device-0/11.0/mergeSort/NO_ARGS/traces/kernel-8.trace
Processing file /gpfs/alpine/gen150/scratch/brantran/accelwattch-artifact-appendix/accel-sim-framework/hw_run/traces/device-0/11.0/mergeSort/NO_ARGS/traces/kernel-9.trace
Processing file /gpfs/alpine/gen150/scratch/brantran/accelwattch-artifact-appendix/accel-sim-framework/hw_run/traces/device-0/11.0/mergeSort/NO_ARGS/traces/kernel-10.trace
Processing file /gpfs/alpine/gen150/scratch/brantran/accelwattch-artifact-appendix/accel-sim-framework/hw_run/traces/device-0/11.0/mergeSort/NO_ARGS/traces/kernel-11.trace
Processing file /gpfs/alpine/gen150/scratch/brantran/accelwattch-artifact-appendix/accel-sim-framework/hw_run/traces/device-0/11.0/mergeSort/NO_ARGS/traces/kernel-12.trace
Processing file /gpfs/alpine/gen150/scratch/brantran/accelwattch-artifact-appendix/accel-sim-framework/hw_run/traces/device-0/11.0/mergeSort/NO_ARGS/traces/kernel-13.trace
Processing file /gpfs/alpine/gen150/scratch/brantran/accelwattch-artifact-appendix/accel-sim-framework/hw_run/traces/device-0/11.0/mergeSort/NO_ARGS/traces/kernel-14.trace
Processing file /gpfs/alpine/gen150/scratch/brantran/accelwattch-artifact-appendix/accel-sim-framework/hw_run/traces/device-0/11.0/mergeSort/NO_ARGS/traces/kernel-15.trace
Processing file /gpfs/alpine/gen150/scratch/brantran/accelwattch-artifact-appendix/accel-sim-framework/hw_run/traces/device-0/11.0/mergeSort/NO_ARGS/traces/kernel-16.trace
Processing file /gpfs/alpine/gen150/scratch/brantran/accelwattch-artifact-appendix/accel-sim-framework/hw_run/traces/device-0/11.0/mergeSort/NO_ARGS/traces/kernel-17.trace
Processing file /gpfs/alpine/gen150/scratch/brantran/accelwattch-artifact-appendix/accel-sim-framework/hw_run/traces/device-0/11.0/mergeSort/NO_ARGS/traces/kernel-18.trace
Processing file /gpfs/alpine/gen150/scratch/brantran/accelwattch-artifact-appendix/accel-sim-framework/hw_run/traces/device-0/11.0/mergeSort/NO_ARGS/traces/kernel-19.trace
Processing file /gpfs/alpine/gen150/scratch/brantran/accelwattch-artifact-appendix/accel-sim-framework/hw_run/traces/device-0/11.0/mergeSort/NO_ARGS/traces/kernel-20.trace
Processing file /gpfs/alpine/gen150/scratch/brantran/accelwattch-artifact-appendix/accel-sim-framework/hw_run/traces/device-0/11.0/mergeSort/NO_ARGS/traces/kernel-21.trace
Processing file /gpfs/alpine/gen150/scratch/brantran/accelwattch-artifact-appendix/accel-sim-framework/hw_run/traces/device-0/11.0/mergeSort/NO_ARGS/traces/kernel-22.trace
Processing file /gpfs/alpine/gen150/scratch/brantran/accelwattch-artifact-appendix/accel-sim-framework/hw_run/traces/device-0/11.0/mergeSort/NO_ARGS/traces/kernel-23.trace
Processing file /gpfs/alpine/gen150/scratch/brantran/accelwattch-artifact-appendix/accel-sim-framework/hw_run/traces/device-0/11.0/mergeSort/NO_ARGS/traces/kernel-24.trace
Processing file /gpfs/alpine/gen150/scratch/brantran/accelwattch-artifact-appendix/accel-sim-framework/hw_run/traces/device-0/11.0/mergeSort/NO_ARGS/traces/kernel-25.trace
Processing file /gpfs/alpine/gen150/scratch/brantran/accelwattch-artifact-appendix/accel-sim-framework/hw_run/traces/device-0/11.0/mergeSort/NO_ARGS/traces/kernel-26.trace
Processing file /gpfs/alpine/gen150/scratch/brantran/accelwattch-artifact-appendix/accel-sim-framework/hw_run/traces/device-0/11.0/mergeSort/NO_ARGS/traces/kernel-27.trace
Processing file /gpfs/alpine/gen150/scratch/brantran/accelwattch-artifact-appendix/accel-sim-framework/hw_run/traces/device-0/11.0/mergeSort/NO_ARGS/traces/kernel-28.trace
Processing file /gpfs/alpine/gen150/scratch/brantran/accelwattch-artifact-appendix/accel-sim-framework/hw_run/traces/device-0/11.0/mergeSort/NO_ARGS/traces/kernel-29.trace
Processing file /gpfs/alpine/gen150/scratch/brantran/accelwattch-artifact-appendix/accel-sim-framework/hw_run/traces/device-0/11.0/mergeSort/NO_ARGS/traces/kernel-30.trace
Processing file /gpfs/alpine/gen150/scratch/brantran/accelwattch-artifact-appendix/accel-sim-framework/hw_run/traces/device-0/11.0/mergeSort/NO_ARGS/traces/kernel-31.trace
Processing file /gpfs/alpine/gen150/scratch/brantran/accelwattch-artifact-appendix/accel-sim-framework/hw_run/traces/device-0/11.0/mergeSort/NO_ARGS/traces/kernel-32.trace
Processing file /gpfs/alpine/gen150/scratch/brantran/accelwattch-artifact-appendix/accel-sim-framework/hw_run/traces/device-0/11.0/mergeSort/NO_ARGS/traces/kernel-33.trace
Processing file /gpfs/alpine/gen150/scratch/brantran/accelwattch-artifact-appendix/accel-sim-framework/hw_run/traces/device-0/11.0/mergeSort/NO_ARGS/traces/kernel-34.trace
Processing file /gpfs/alpine/gen150/scratch/brantran/accelwattch-artifact-appendix/accel-sim-framework/hw_run/traces/device-0/11.0/mergeSort/NO_ARGS/traces/kernel-35.trace
Processing file /gpfs/alpine/gen150/scratch/brantran/accelwattch-artifact-appendix/accel-sim-framework/hw_run/traces/device-0/11.0/mergeSort/NO_ARGS/traces/kernel-36.trace
Processing file /gpfs/alpine/gen150/scratch/brantran/accelwattch-artifact-appendix/accel-sim-framework/hw_run/traces/device-0/11.0/mergeSort/NO_ARGS/traces/kernel-37.trace
Processing file /gpfs/alpine/gen150/scratch/brantran/accelwattch-artifact-appendix/accel-sim-framework/hw_run/traces/device-0/11.0/mergeSort/NO_ARGS/traces/kernel-38.trace
Processing file /gpfs/alpine/gen150/scratch/brantran/accelwattch-artifact-appendix/accel-sim-framework/hw_run/traces/device-0/11.0/mergeSort/NO_ARGS/traces/kernel-39.trace
Processing file /gpfs/alpine/gen150/scratch/brantran/accelwattch-artifact-appendix/accel-sim-framework/hw_run/traces/device-0/11.0/mergeSort/NO_ARGS/traces/kernel-40.trace
Processing file /gpfs/alpine/gen150/scratch/brantran/accelwattch-artifact-appendix/accel-sim-framework/hw_run/traces/device-0/11.0/mergeSort/NO_ARGS/traces/kernel-41.trace
Processing file /gpfs/alpine/gen150/scratch/brantran/accelwattch-artifact-appendix/accel-sim-framework/hw_run/traces/device-0/11.0/mergeSort/NO_ARGS/traces/kernel-42.trace
Processing file /gpfs/alpine/gen150/scratch/brantran/accelwattch-artifact-appendix/accel-sim-framework/hw_run/traces/device-0/11.0/mergeSort/NO_ARGS/traces/kernel-43.trace
Processing file /gpfs/alpine/gen150/scratch/brantran/accelwattch-artifact-appendix/accel-sim-framework/hw_run/traces/device-0/11.0/mergeSort/NO_ARGS/traces/kernel-44.trace
Processing file /gpfs/alpine/gen150/scratch/brantran/accelwattch-artifact-appendix/accel-sim-framework/hw_run/traces/device-0/11.0/mergeSort/NO_ARGS/traces/kernel-45.trace
User defined signal 2
